REMARK  Name = ../refined-set-2016/3f5k/3f5k_pocket.pdb
REMARK  281 active torsions:
REMARK  status: ('A' for Active; 'I' for Inactive)
REMARK    1  A    between atoms: _1  and  _3
REMARK    2  A    between atoms: _3  and  _4
REMARK    3  A    between atoms: _3  and  _6
REMARK    4  A    between atoms: _9  and  _11
REMARK    5  A    between atoms: _11  and  _12
REMARK    6  A    between atoms: _11  and  _14
REMARK    7  A    between atoms: _14  and  _15
REMARK    8  A    between atoms: _18  and  _20
REMARK    9  A    between atoms: _20  and  _21
REMARK   10  A    between atoms: _20  and  _23
REMARK   11  A    between atoms: _23  and  _24
REMARK   12  A    between atoms: _26  and  _28
REMARK   13  A    between atoms: _28  and  _29
REMARK   14  A    between atoms: _32  and  _34
REMARK   15  A    between atoms: _34  and  _35
REMARK   16  A    between atoms: _34  and  _37
REMARK   17  A    between atoms: _37  and  _38
REMARK   18  A    between atoms: _38  and  _39
REMARK   19  A    between atoms: _44  and  _46
REMARK   20  A    between atoms: _46  and  _47
REMARK   21  A    between atoms: _46  and  _49
REMARK   22  A    between atoms: _49  and  _50
REMARK   23  A    between atoms: _50  and  _51
REMARK   24  A    between atoms: _51  and  _52
REMARK   25  A    between atoms: _61  and  _63
REMARK   26  A    between atoms: _63  and  _64
REMARK   27  A    between atoms: _63  and  _66
REMARK   28  A    between atoms: _66  and  _67
REMARK   29  A    between atoms: _72  and  _74
REMARK   30  A    between atoms: _74  and  _75
REMARK   31  A    between atoms: _74  and  _77
REMARK   32  A    between atoms: _77  and  _78
REMARK   33  A    between atoms: _83  and  _85
REMARK   34  A    between atoms: _85  and  _86
REMARK   35  A    between atoms: _85  and  _88
REMARK   36  A    between atoms: _88  and  _89
REMARK   37  A    between atoms: _94  and  _95
REMARK   38  A    between atoms: _97  and  _99
REMARK   39  A    between atoms: _99  and  _100
REMARK   40  A    between atoms: _99  and  _102
REMARK   41  A    between atoms: _102  and  _103
REMARK   42  A    between atoms: _108  and  _110
REMARK   43  A    between atoms: _110  and  _111
REMARK   44  A    between atoms: _110  and  _113
REMARK   45  A    between atoms: _113  and  _114
REMARK   46  A    between atoms: _114  and  _115
REMARK   47  A    between atoms: _120  and  _122
REMARK   48  A    between atoms: _122  and  _123
REMARK   49  A    between atoms: _122  and  _125
REMARK   50  A    between atoms: _125  and  _126
REMARK   51  A    between atoms: _126  and  _127
REMARK   52  A    between atoms: _127  and  _128
REMARK   53  A    between atoms: _137  and  _139
REMARK   54  A    between atoms: _139  and  _140
REMARK   55  A    between atoms: _139  and  _142
REMARK   56  A    between atoms: _142  and  _143
REMARK   57  A    between atoms: _146  and  _148
REMARK   58  A    between atoms: _148  and  _149
REMARK   59  A    between atoms: _148  and  _151
REMARK   60  A    between atoms: _151  and  _152
REMARK   61  A    between atoms: _155  and  _157
REMARK   62  A    between atoms: _157  and  _158
REMARK   63  A    between atoms: _157  and  _160
REMARK   64  A    between atoms: _160  and  _161
REMARK   65  A    between atoms: _164  and  _166
REMARK   66  A    between atoms: _166  and  _167
REMARK   67  A    between atoms: _166  and  _169
REMARK   68  A    between atoms: _169  and  _170
REMARK   69  A    between atoms: _173  and  _175
REMARK   70  A    between atoms: _175  and  _176
REMARK   71  A    between atoms: _175  and  _178
REMARK   72  A    between atoms: _178  and  _179
REMARK   73  A    between atoms: _179  and  _180
REMARK   74  A    between atoms: _185  and  _187
REMARK   75  A    between atoms: _187  and  _188
REMARK   76  A    between atoms: _187  and  _190
REMARK   77  A    between atoms: _190  and  _191
REMARK   78  A    between atoms: _194  and  _196
REMARK   79  A    between atoms: _196  and  _197
REMARK   80  A    between atoms: _196  and  _199
REMARK   81  A    between atoms: _199  and  _200
REMARK   82  A    between atoms: _205  and  _207
REMARK   83  A    between atoms: _207  and  _208
REMARK   84  A    between atoms: _207  and  _210
REMARK   85  A    between atoms: _213  and  _215
REMARK   86  A    between atoms: _215  and  _216
REMARK   87  A    between atoms: _215  and  _218
REMARK   88  A    between atoms: _218  and  _219
REMARK   89  A    between atoms: _222  and  _224
REMARK   90  A    between atoms: _224  and  _225
REMARK   91  A    between atoms: _224  and  _227
REMARK   92  A    between atoms: _227  and  _228
REMARK   93  A    between atoms: _231  and  _233
REMARK   94  A    between atoms: _233  and  _234
REMARK   95  A    between atoms: _233  and  _236
REMARK   96  A    between atoms: _236  and  _237
REMARK   97  A    between atoms: _243  and  _245
REMARK   98  A    between atoms: _245  and  _246
REMARK   99  A    between atoms: _245  and  _248
REMARK  100  A    between atoms: _248  and  _249
REMARK  101  A    between atoms: _254  and  _256
REMARK  102  A    between atoms: _256  and  _257
REMARK  103  A    between atoms: _256  and  _259
REMARK  104  A    between atoms: _259  and  _260
REMARK  105  A    between atoms: _270  and  _272
REMARK  106  A    between atoms: _272  and  _273
REMARK  107  A    between atoms: _272  and  _275
REMARK  108  A    between atoms: _275  and  _276
REMARK  109  A    between atoms: _281  and  _282
REMARK  110  A    between atoms: _284  and  _286
REMARK  111  A    between atoms: _286  and  _287
REMARK  112  A    between atoms: _286  and  _289
REMARK  113  A    between atoms: _289  and  _290
REMARK  114  A    between atoms: _295  and  _297
REMARK  115  A    between atoms: _297  and  _298
REMARK  116  A    between atoms: _297  and  _300
REMARK  117  A    between atoms: _300  and  _301
REMARK  118  A    between atoms: _306  and  _308
REMARK  119  A    between atoms: _308  and  _309
REMARK  120  A    between atoms: _308  and  _311
REMARK  121  A    between atoms: _311  and  _312
REMARK  122  A    between atoms: _312  and  _313
REMARK  123  A    between atoms: _318  and  _320
REMARK  124  A    between atoms: _320  and  _321
REMARK  125  A    between atoms: _320  and  _323
REMARK  126  A    between atoms: _323  and  _324
REMARK  127  A    between atoms: _329  and  _330
REMARK  128  A    between atoms: _332  and  _334
REMARK  129  A    between atoms: _334  and  _335
REMARK  130  A    between atoms: _334  and  _337
REMARK  131  A    between atoms: _337  and  _338
REMARK  132  A    between atoms: _341  and  _343
REMARK  133  A    between atoms: _343  and  _344
REMARK  134  A    between atoms: _347  and  _349
REMARK  135  A    between atoms: _349  and  _350
REMARK  136  A    between atoms: _349  and  _352
REMARK  137  A    between atoms: _352  and  _353
REMARK  138  A    between atoms: _355  and  _357
REMARK  139  A    between atoms: _357  and  _358
REMARK  140  A    between atoms: _357  and  _360
REMARK  141  A    between atoms: _360  and  _361
REMARK  142  A    between atoms: _361  and  _362
REMARK  143  A    between atoms: _364  and  _366
REMARK  144  A    between atoms: _366  and  _367
REMARK  145  A    between atoms: _366  and  _369
REMARK  146  A    between atoms: _369  and  _370
REMARK  147  A    between atoms: _370  and  _371
REMARK  148  A    between atoms: _376  and  _378
REMARK  149  A    between atoms: _378  and  _379
REMARK  150  A    between atoms: _378  and  _381
REMARK  151  A    between atoms: _381  and  _382
REMARK  152  A    between atoms: _384  and  _386
REMARK  153  A    between atoms: _386  and  _387
REMARK  154  A    between atoms: _386  and  _389
REMARK  155  A    between atoms: _389  and  _390
REMARK  156  A    between atoms: _395  and  _396
REMARK  157  A    between atoms: _398  and  _400
REMARK  158  A    between atoms: _400  and  _401
REMARK  159  A    between atoms: _400  and  _403
REMARK  160  A    between atoms: _403  and  _404
REMARK  161  A    between atoms: _406  and  _408
REMARK  162  A    between atoms: _408  and  _409
REMARK  163  A    between atoms: _412  and  _414
REMARK  164  A    between atoms: _414  and  _415
REMARK  165  A    between atoms: _414  and  _417
REMARK  166  A    between atoms: _417  and  _418
REMARK  167  A    between atoms: _428  and  _430
REMARK  168  A    between atoms: _430  and  _431
REMARK  169  A    between atoms: _430  and  _433
REMARK  170  A    between atoms: _433  and  _434
REMARK  171  A    between atoms: _434  and  _435
REMARK  172  A    between atoms: _440  and  _442
REMARK  173  A    between atoms: _442  and  _443
REMARK  174  A    between atoms: _442  and  _445
REMARK  175  A    between atoms: _448  and  _450
REMARK  176  A    between atoms: _450  and  _451
REMARK  177  A    between atoms: _450  and  _453
REMARK  178  A    between atoms: _453  and  _454
REMARK  179  A    between atoms: _457  and  _459
REMARK  180  A    between atoms: _459  and  _460
REMARK  181  A    between atoms: _459  and  _462
REMARK  182  A    between atoms: _462  and  _463
REMARK  183  A    between atoms: _468  and  _469
REMARK  184  A    between atoms: _471  and  _473
REMARK  185  A    between atoms: _473  and  _474
REMARK  186  A    between atoms: _473  and  _476
REMARK  187  A    between atoms: _479  and  _481
REMARK  188  A    between atoms: _481  and  _482
REMARK  189  A    between atoms: _481  and  _484
REMARK  190  A    between atoms: _484  and  _485
REMARK  191  A    between atoms: _491  and  _493
REMARK  192  A    between atoms: _493  and  _494
REMARK  193  A    between atoms: _493  and  _496
REMARK  194  A    between atoms: _496  and  _497
REMARK  195  A    between atoms: _497  and  _498
REMARK  196  A    between atoms: _503  and  _505
REMARK  197  A    between atoms: _505  and  _506
REMARK  198  A    between atoms: _505  and  _508
REMARK  199  A    between atoms: _508  and  _509
REMARK  200  A    between atoms: _511  and  _513
REMARK  201  A    between atoms: _513  and  _514
REMARK  202  A    between atoms: _513  and  _516
REMARK  203  A    between atoms: _516  and  _517
REMARK  204  A    between atoms: _522  and  _524
REMARK  205  A    between atoms: _524  and  _525
REMARK  206  A    between atoms: _524  and  _527
REMARK  207  A    between atoms: _527  and  _528
REMARK  208  A    between atoms: _538  and  _540
REMARK  209  A    between atoms: _540  and  _541
REMARK  210  A    between atoms: _540  and  _543
REMARK  211  A    between atoms: _543  and  _544
REMARK  212  A    between atoms: _547  and  _549
REMARK  213  A    between atoms: _549  and  _550
REMARK  214  A    between atoms: _549  and  _552
REMARK  215  A    between atoms: _552  and  _553
REMARK  216  A    between atoms: _558  and  _559
REMARK  217  A    between atoms: _561  and  _563
REMARK  218  A    between atoms: _563  and  _564
REMARK  219  A    between atoms: _563  and  _566
REMARK  220  A    between atoms: _566  and  _567
REMARK  221  A    between atoms: _570  and  _572
REMARK  222  A    between atoms: _572  and  _573
REMARK  223  A    between atoms: _572  and  _575
REMARK  224  A    between atoms: _575  and  _576
REMARK  225  A    between atoms: _576  and  _577
REMARK  226  A    between atoms: _580  and  _582
REMARK  227  A    between atoms: _582  and  _583
REMARK  228  A    between atoms: _582  and  _585
REMARK  229  A    between atoms: _585  and  _586
REMARK  230  A    between atoms: _591  and  _593
REMARK  231  A    between atoms: _593  and  _594
REMARK  232  A    between atoms: _596  and  _598
REMARK  233  A    between atoms: _598  and  _599
REMARK  234  A    between atoms: _598  and  _601
REMARK  235  A    between atoms: _601  and  _602
REMARK  236  A    between atoms: _602  and  _603
REMARK  237  A    between atoms: _605  and  _607
REMARK  238  A    between atoms: _607  and  _608
REMARK  239  A    between atoms: _607  and  _610
REMARK  240  A    between atoms: _610  and  _611
REMARK  241  A    between atoms: _614  and  _616
REMARK  242  A    between atoms: _616  and  _617
REMARK  243  A    between atoms: _616  and  _619
REMARK  244  A    between atoms: _619  and  _620
REMARK  245  A    between atoms: _630  and  _632
REMARK  246  A    between atoms: _632  and  _633
REMARK  247  A    between atoms: _632  and  _635
REMARK  248  A    between atoms: _635  and  _636
REMARK  249  A    between atoms: _638  and  _640
REMARK  250  A    between atoms: _640  and  _641
REMARK  251  A    between atoms: _640  and  _643
REMARK  252  A    between atoms: _643  and  _644
REMARK  253  A    between atoms: _649  and  _651
REMARK  254  A    between atoms: _651  and  _652
REMARK  255  A    between atoms: _651  and  _654
REMARK  256  A    between atoms: _654  and  _655
REMARK  257  A    between atoms: _661  and  _663
REMARK  258  A    between atoms: _663  and  _664
REMARK  259  A    between atoms: _663  and  _666
REMARK  260  A    between atoms: _666  and  _667
REMARK  261  A    between atoms: _667  and  _668
REMARK  262  A    between atoms: _671  and  _673
REMARK  263  A    between atoms: _673  and  _674
REMARK  264  A    between atoms: _673  and  _676
REMARK  265  A    between atoms: _676  and  _677
REMARK  266  A    between atoms: _687  and  _689
REMARK  267  A    between atoms: _689  and  _690
REMARK  268  A    between atoms: _689  and  _692
REMARK  269  A    between atoms: _692  and  _693
REMARK  270  A    between atoms: _696  and  _698
REMARK  271  A    between atoms: _698  and  _699
REMARK  272  A    between atoms: _698  and  _701
REMARK  273  A    between atoms: _701  and  _702
REMARK  274  A    between atoms: _704  and  _706
REMARK  275  A    between atoms: _706  and  _707
REMARK  276  A    between atoms: _706  and  _709
REMARK  277  A    between atoms: _709  and  _710
REMARK  278  A    between atoms: _712  and  _714
REMARK  279  A    between atoms: _714  and  _715
REMARK  280  A    between atoms: _714  and  _717
REMARK  281  A    between atoms: _717  and  _718
REMARK                            x       y       z     vdW  Elec       q    Type
REMARK                         _______ _______ _______ _____ _____    ______ ____
ROOT
ATOM      1  C   THR A   2       8.303   1.355  27.883  0.00  0.00    +0.243 C 
ATOM      2  O   THR A   2       9.430   1.087  28.302  0.00  0.00    -0.273 OA
ATOM      3  N   SER A   3       7.361   0.425  27.732  0.00  0.00    -0.295 N 
ATOM      4  H   SER A   3       6.385   0.718  27.522  0.00  0.00    +0.150 HD
ENDROOT
BRANCH   1   5
ATOM      5  CA  THR A   2       7.933   2.786  27.491  0.00  0.00    +0.176 C 
BRANCH   5   8
ATOM      6  C   VAL A   1       9.007   4.842  28.303  0.00  0.00    +0.238 C 
ATOM      7  O   VAL A   1       7.955   5.510  28.369  0.00  0.00    -0.274 OA
ATOM      8  N   THR A   2       9.103   3.632  27.760  0.00  0.00    -0.295 N 
ATOM      9  H   THR A   2      10.047   3.269  27.515  0.00  0.00    +0.150 HD
BRANCH   6  10
ATOM     10  CA  VAL A   1      10.343   5.428  28.750  0.00  0.00    +0.145 C 
BRANCH  10  11
ATOM     11  CB  VAL A   1      10.898   4.897  30.145  0.00  0.00    +0.025 C 
ATOM     12  CG2 VAL A   1      10.947   5.950  31.228  0.00  0.00    +0.002 C 
ATOM     13  CG1 VAL A   1      10.347   3.529  30.574  0.00  0.00    +0.002 C 
ENDBRANCH  10  11
BRANCH  10  14
ATOM     14  N   VAL A   1      10.413   6.877  28.606  0.00  0.00    -0.238 NA
ATOM     15  H   VAL A   1       9.593   7.467  28.853  0.00  0.00    +0.142 HD
ENDBRANCH  10  14
ENDBRANCH   6  10
ENDBRANCH   5   8
BRANCH   5  16
ATOM     16  CB  THR A   2       7.540   2.807  25.986  0.00  0.00    +0.137 C 
ATOM     17  CG2 THR A   2       7.191   4.250  25.499  0.00  0.00    +0.034 C 
BRANCH  16  18
ATOM     18  OG1 THR A   2       8.622   2.285  25.212  0.00  0.00    -0.382 OA
ATOM     19  HG1 THR A   2       8.810   1.355  25.495  0.00  0.00    +0.210 HD
ENDBRANCH  16  18
ENDBRANCH   5  16
ENDBRANCH   1   5
BRANCH   3  20
ATOM     20  CA  SER A   3       7.670  -1.002  27.855  0.00  0.00    +0.178 C 
BRANCH  20  21
ATOM     21  C   SER A   3       6.967  -1.697  26.705  0.00  0.00    +0.243 C 
ATOM     22  N   ALA A   4       7.460  -2.882  26.349  0.00  0.00    -0.298 N 
ATOM     23  H   ALA A   4       8.171  -3.328  26.963  0.00  0.00    +0.150 HD
ATOM     24  O   SER A   3       6.015  -1.148  26.162  0.00  0.00    -0.273 OA
BRANCH  22  25
ATOM     25  CA  ALA A   4       7.043  -3.591  25.123  0.00  0.00    +0.137 C 
ATOM     26  CB  ALA A   4       7.831  -4.929  24.962  0.00  0.00    +0.030 C 
BRANCH  25  27
ATOM     27  C   ALA A   4       5.541  -3.846  25.075  0.00  0.00    +0.227 C 
ATOM     28  O   ALA A   4       4.858  -3.405  24.133  0.00  0.00    -0.286 OA
ENDBRANCH  25  27
ENDBRANCH  22  25
ENDBRANCH  20  21
BRANCH  20  29
ATOM     29  CB  SER A   3       7.212  -1.594  29.193  0.00  0.00    +0.166 C 
BRANCH  29  30
ATOM     30  OG  SER A   3       5.828  -1.918  29.206  0.00  0.00    -0.380 OA
ATOM     31  H   SER A   3       5.297  -1.099  29.039  0.00  0.00    +0.211 HD
ENDBRANCH  29  30
ENDBRANCH  20  29
ENDBRANCH   3  20
TORSDOF 13
REMARK  Name = ../refined-set-2016/3f5k/3f5k_pocket.pdb
REMARK  281 active torsions:
REMARK  status: ('A' for Active; 'I' for Inactive)
REMARK    1  A    between atoms: _1  and  _3
REMARK    2  A    between atoms: _3  and  _4
REMARK    3  A    between atoms: _3  and  _6
REMARK    4  A    between atoms: _9  and  _11
REMARK    5  A    between atoms: _11  and  _12
REMARK    6  A    between atoms: _11  and  _14
REMARK    7  A    between atoms: _14  and  _15
REMARK    8  A    between atoms: _18  and  _20
REMARK    9  A    between atoms: _20  and  _21
REMARK   10  A    between atoms: _20  and  _23
REMARK   11  A    between atoms: _23  and  _24
REMARK   12  A    between atoms: _26  and  _28
REMARK   13  A    between atoms: _28  and  _29
REMARK   14  A    between atoms: _32  and  _34
REMARK   15  A    between atoms: _34  and  _35
REMARK   16  A    between atoms: _34  and  _37
REMARK   17  A    between atoms: _37  and  _38
REMARK   18  A    between atoms: _38  and  _39
REMARK   19  A    between atoms: _44  and  _46
REMARK   20  A    between atoms: _46  and  _47
REMARK   21  A    between atoms: _46  and  _49
REMARK   22  A    between atoms: _49  and  _50
REMARK   23  A    between atoms: _50  and  _51
REMARK   24  A    between atoms: _51  and  _52
REMARK   25  A    between atoms: _61  and  _63
REMARK   26  A    between atoms: _63  and  _64
REMARK   27  A    between atoms: _63  and  _66
REMARK   28  A    between atoms: _66  and  _67
REMARK   29  A    between atoms: _72  and  _74
REMARK   30  A    between atoms: _74  and  _75
REMARK   31  A    between atoms: _74  and  _77
REMARK   32  A    between atoms: _77  and  _78
REMARK   33  A    between atoms: _83  and  _85
REMARK   34  A    between atoms: _85  and  _86
REMARK   35  A    between atoms: _85  and  _88
REMARK   36  A    between atoms: _88  and  _89
REMARK   37  A    between atoms: _94  and  _95
REMARK   38  A    between atoms: _97  and  _99
REMARK   39  A    between atoms: _99  and  _100
REMARK   40  A    between atoms: _99  and  _102
REMARK   41  A    between atoms: _102  and  _103
REMARK   42  A    between atoms: _108  and  _110
REMARK   43  A    between atoms: _110  and  _111
REMARK   44  A    between atoms: _110  and  _113
REMARK   45  A    between atoms: _113  and  _114
REMARK   46  A    between atoms: _114  and  _115
REMARK   47  A    between atoms: _120  and  _122
REMARK   48  A    between atoms: _122  and  _123
REMARK   49  A    between atoms: _122  and  _125
REMARK   50  A    between atoms: _125  and  _126
REMARK   51  A    between atoms: _126  and  _127
REMARK   52  A    between atoms: _127  and  _128
REMARK   53  A    between atoms: _137  and  _139
REMARK   54  A    between atoms: _139  and  _140
REMARK   55  A    between atoms: _139  and  _142
REMARK   56  A    between atoms: _142  and  _143
REMARK   57  A    between atoms: _146  and  _148
REMARK   58  A    between atoms: _148  and  _149
REMARK   59  A    between atoms: _148  and  _151
REMARK   60  A    between atoms: _151  and  _152
REMARK   61  A    between atoms: _155  and  _157
REMARK   62  A    between atoms: _157  and  _158
REMARK   63  A    between atoms: _157  and  _160
REMARK   64  A    between atoms: _160  and  _161
REMARK   65  A    between atoms: _164  and  _166
REMARK   66  A    between atoms: _166  and  _167
REMARK   67  A    between atoms: _166  and  _169
REMARK   68  A    between atoms: _169  and  _170
REMARK   69  A    between atoms: _173  and  _175
REMARK   70  A    between atoms: _175  and  _176
REMARK   71  A    between atoms: _175  and  _178
REMARK   72  A    between atoms: _178  and  _179
REMARK   73  A    between atoms: _179  and  _180
REMARK   74  A    between atoms: _185  and  _187
REMARK   75  A    between atoms: _187  and  _188
REMARK   76  A    between atoms: _187  and  _190
REMARK   77  A    between atoms: _190  and  _191
REMARK   78  A    between atoms: _194  and  _196
REMARK   79  A    between atoms: _196  and  _197
REMARK   80  A    between atoms: _196  and  _199
REMARK   81  A    between atoms: _199  and  _200
REMARK   82  A    between atoms: _205  and  _207
REMARK   83  A    between atoms: _207  and  _208
REMARK   84  A    between atoms: _207  and  _210
REMARK   85  A    between atoms: _213  and  _215
REMARK   86  A    between atoms: _215  and  _216
REMARK   87  A    between atoms: _215  and  _218
REMARK   88  A    between atoms: _218  and  _219
REMARK   89  A    between atoms: _222  and  _224
REMARK   90  A    between atoms: _224  and  _225
REMARK   91  A    between atoms: _224  and  _227
REMARK   92  A    between atoms: _227  and  _228
REMARK   93  A    between atoms: _231  and  _233
REMARK   94  A    between atoms: _233  and  _234
REMARK   95  A    between atoms: _233  and  _236
REMARK   96  A    between atoms: _236  and  _237
REMARK   97  A    between atoms: _243  and  _245
REMARK   98  A    between atoms: _245  and  _246
REMARK   99  A    between atoms: _245  and  _248
REMARK  100  A    between atoms: _248  and  _249
REMARK  101  A    between atoms: _254  and  _256
REMARK  102  A    between atoms: _256  and  _257
REMARK  103  A    between atoms: _256  and  _259
REMARK  104  A    between atoms: _259  and  _260
REMARK  105  A    between atoms: _270  and  _272
REMARK  106  A    between atoms: _272  and  _273
REMARK  107  A    between atoms: _272  and  _275
REMARK  108  A    between atoms: _275  and  _276
REMARK  109  A    between atoms: _281  and  _282
REMARK  110  A    between atoms: _284  and  _286
REMARK  111  A    between atoms: _286  and  _287
REMARK  112  A    between atoms: _286  and  _289
REMARK  113  A    between atoms: _289  and  _290
REMARK  114  A    between atoms: _295  and  _297
REMARK  115  A    between atoms: _297  and  _298
REMARK  116  A    between atoms: _297  and  _300
REMARK  117  A    between atoms: _300  and  _301
REMARK  118  A    between atoms: _306  and  _308
REMARK  119  A    between atoms: _308  and  _309
REMARK  120  A    between atoms: _308  and  _311
REMARK  121  A    between atoms: _311  and  _312
REMARK  122  A    between atoms: _312  and  _313
REMARK  123  A    between atoms: _318  and  _320
REMARK  124  A    between atoms: _320  and  _321
REMARK  125  A    between atoms: _320  and  _323
REMARK  126  A    between atoms: _323  and  _324
REMARK  127  A    between atoms: _329  and  _330
REMARK  128  A    between atoms: _332  and  _334
REMARK  129  A    between atoms: _334  and  _335
REMARK  130  A    between atoms: _334  and  _337
REMARK  131  A    between atoms: _337  and  _338
REMARK  132  A    between atoms: _341  and  _343
REMARK  133  A    between atoms: _343  and  _344
REMARK  134  A    between atoms: _347  and  _349
REMARK  135  A    between atoms: _349  and  _350
REMARK  136  A    between atoms: _349  and  _352
REMARK  137  A    between atoms: _352  and  _353
REMARK  138  A    between atoms: _355  and  _357
REMARK  139  A    between atoms: _357  and  _358
REMARK  140  A    between atoms: _357  and  _360
REMARK  141  A    between atoms: _360  and  _361
REMARK  142  A    between atoms: _361  and  _362
REMARK  143  A    between atoms: _364  and  _366
REMARK  144  A    between atoms: _366  and  _367
REMARK  145  A    between atoms: _366  and  _369
REMARK  146  A    between atoms: _369  and  _370
REMARK  147  A    between atoms: _370  and  _371
REMARK  148  A    between atoms: _376  and  _378
REMARK  149  A    between atoms: _378  and  _379
REMARK  150  A    between atoms: _378  and  _381
REMARK  151  A    between atoms: _381  and  _382
REMARK  152  A    between atoms: _384  and  _386
REMARK  153  A    between atoms: _386  and  _387
REMARK  154  A    between atoms: _386  and  _389
REMARK  155  A    between atoms: _389  and  _390
REMARK  156  A    between atoms: _395  and  _396
REMARK  157  A    between atoms: _398  and  _400
REMARK  158  A    between atoms: _400  and  _401
REMARK  159  A    between atoms: _400  and  _403
REMARK  160  A    between atoms: _403  and  _404
REMARK  161  A    between atoms: _406  and  _408
REMARK  162  A    between atoms: _408  and  _409
REMARK  163  A    between atoms: _412  and  _414
REMARK  164  A    between atoms: _414  and  _415
REMARK  165  A    between atoms: _414  and  _417
REMARK  166  A    between atoms: _417  and  _418
REMARK  167  A    between atoms: _428  and  _430
REMARK  168  A    between atoms: _430  and  _431
REMARK  169  A    between atoms: _430  and  _433
REMARK  170  A    between atoms: _433  and  _434
REMARK  171  A    between atoms: _434  and  _435
REMARK  172  A    between atoms: _440  and  _442
REMARK  173  A    between atoms: _442  and  _443
REMARK  174  A    between atoms: _442  and  _445
REMARK  175  A    between atoms: _448  and  _450
REMARK  176  A    between atoms: _450  and  _451
REMARK  177  A    between atoms: _450  and  _453
REMARK  178  A    between atoms: _453  and  _454
REMARK  179  A    between atoms: _457  and  _459
REMARK  180  A    between atoms: _459  and  _460
REMARK  181  A    between atoms: _459  and  _462
REMARK  182  A    between atoms: _462  and  _463
REMARK  183  A    between atoms: _468  and  _469
REMARK  184  A    between atoms: _471  and  _473
REMARK  185  A    between atoms: _473  and  _474
REMARK  186  A    between atoms: _473  and  _476
REMARK  187  A    between atoms: _479  and  _481
REMARK  188  A    between atoms: _481  and  _482
REMARK  189  A    between atoms: _481  and  _484
REMARK  190  A    between atoms: _484  and  _485
REMARK  191  A    between atoms: _491  and  _493
REMARK  192  A    between atoms: _493  and  _494
REMARK  193  A    between atoms: _493  and  _496
REMARK  194  A    between atoms: _496  and  _497
REMARK  195  A    between atoms: _497  and  _498
REMARK  196  A    between atoms: _503  and  _505
REMARK  197  A    between atoms: _505  and  _506
REMARK  198  A    between atoms: _505  and  _508
REMARK  199  A    between atoms: _508  and  _509
REMARK  200  A    between atoms: _511  and  _513
REMARK  201  A    between atoms: _513  and  _514
REMARK  202  A    between atoms: _513  and  _516
REMARK  203  A    between atoms: _516  and  _517
REMARK  204  A    between atoms: _522  and  _524
REMARK  205  A    between atoms: _524  and  _525
REMARK  206  A    between atoms: _524  and  _527
REMARK  207  A    between atoms: _527  and  _528
REMARK  208  A    between atoms: _538  and  _540
REMARK  209  A    between atoms: _540  and  _541
REMARK  210  A    between atoms: _540  and  _543
REMARK  211  A    between atoms: _543  and  _544
REMARK  212  A    between atoms: _547  and  _549
REMARK  213  A    between atoms: _549  and  _550
REMARK  214  A    between atoms: _549  and  _552
REMARK  215  A    between atoms: _552  and  _553
REMARK  216  A    between atoms: _558  and  _559
REMARK  217  A    between atoms: _561  and  _563
REMARK  218  A    between atoms: _563  and  _564
REMARK  219  A    between atoms: _563  and  _566
REMARK  220  A    between atoms: _566  and  _567
REMARK  221  A    between atoms: _570  and  _572
REMARK  222  A    between atoms: _572  and  _573
REMARK  223  A    between atoms: _572  and  _575
REMARK  224  A    between atoms: _575  and  _576
REMARK  225  A    between atoms: _576  and  _577
REMARK  226  A    between atoms: _580  and  _582
REMARK  227  A    between atoms: _582  and  _583
REMARK  228  A    between atoms: _582  and  _585
REMARK  229  A    between atoms: _585  and  _586
REMARK  230  A    between atoms: _591  and  _593
REMARK  231  A    between atoms: _593  and  _594
REMARK  232  A    between atoms: _596  and  _598
REMARK  233  A    between atoms: _598  and  _599
REMARK  234  A    between atoms: _598  and  _601
REMARK  235  A    between atoms: _601  and  _602
REMARK  236  A    between atoms: _602  and  _603
REMARK  237  A    between atoms: _605  and  _607
REMARK  238  A    between atoms: _607  and  _608
REMARK  239  A    between atoms: _607  and  _610
REMARK  240  A    between atoms: _610  and  _611
REMARK  241  A    between atoms: _614  and  _616
REMARK  242  A    between atoms: _616  and  _617
REMARK  243  A    between atoms: _616  and  _619
REMARK  244  A    between atoms: _619  and  _620
REMARK  245  A    between atoms: _630  and  _632
REMARK  246  A    between atoms: _632  and  _633
REMARK  247  A    between atoms: _632  and  _635
REMARK  248  A    between atoms: _635  and  _636
REMARK  249  A    between atoms: _638  and  _640
REMARK  250  A    between atoms: _640  and  _641
REMARK  251  A    between atoms: _640  and  _643
REMARK  252  A    between atoms: _643  and  _644
REMARK  253  A    between atoms: _649  and  _651
REMARK  254  A    between atoms: _651  and  _652
REMARK  255  A    between atoms: _651  and  _654
REMARK  256  A    between atoms: _654  and  _655
REMARK  257  A    between atoms: _661  and  _663
REMARK  258  A    between atoms: _663  and  _664
REMARK  259  A    between atoms: _663  and  _666
REMARK  260  A    between atoms: _666  and  _667
REMARK  261  A    between atoms: _667  and  _668
REMARK  262  A    between atoms: _671  and  _673
REMARK  263  A    between atoms: _673  and  _674
REMARK  264  A    between atoms: _673  and  _676
REMARK  265  A    between atoms: _676  and  _677
REMARK  266  A    between atoms: _687  and  _689
REMARK  267  A    between atoms: _689  and  _690
REMARK  268  A    between atoms: _689  and  _692
REMARK  269  A    between atoms: _692  and  _693
REMARK  270  A    between atoms: _696  and  _698
REMARK  271  A    between atoms: _698  and  _699
REMARK  272  A    between atoms: _698  and  _701
REMARK  273  A    between atoms: _701  and  _702
REMARK  274  A    between atoms: _704  and  _706
REMARK  275  A    between atoms: _706  and  _707
REMARK  276  A    between atoms: _706  and  _709
REMARK  277  A    between atoms: _709  and  _710
REMARK  278  A    between atoms: _712  and  _714
REMARK  279  A    between atoms: _714  and  _715
REMARK  280  A    between atoms: _714  and  _717
REMARK  281  A    between atoms: _717  and  _718
REMARK                            x       y       z     vdW  Elec       q    Type
REMARK                         _______ _______ _______ _____ _____    ______ ____
ROOT
ATOM      1  CB  GLN A   1       2.877  -0.576  28.145  0.00  0.00    +0.035 C 
ENDROOT
BRANCH   1   2
ATOM      2  CA  GLN A   1       2.392  -1.362  26.924  0.00  0.00    +0.134 C 
BRANCH   2   3
ATOM      3  N   GLN A   1       3.199  -2.566  26.717  0.00  0.00    -0.239 NA
ATOM      4  H   GLN A   1       4.170  -2.603  27.088  0.00  0.00    +0.142 HD
ENDBRANCH   2   3
BRANCH   2   5
ATOM      5  C   GLN A   1       2.295  -0.482  25.675  0.00  0.00    +0.224 C 
ATOM      6  O   GLN A   1       1.325   0.255  25.537  0.00  0.00    -0.287 OA
ENDBRANCH   2   5
ENDBRANCH   1   2
BRANCH   1   7
ATOM      7  CG  GLN A   1       2.750  -1.369  29.424  0.00  0.00    +0.087 C 
BRANCH   7   8
ATOM      8  CD  GLN A   1       3.186  -0.562  30.638  0.00  0.00    +0.219 C 
ATOM      9  NE2 GLN A   1       2.254   0.195  31.213  0.00  0.00    -0.329 N 
ATOM     10 HE21 GLN A   1       2.496   0.783  32.036  0.00  0.00    +0.145 HD
ATOM     11 HE22 GLN A   1       1.283   0.198  30.839  0.00  0.00    +0.145 HD
ATOM     12  OE1 GLN A   1       4.361  -0.610  31.036  0.00  0.00    -0.275 OA
ENDBRANCH   7   8
ENDBRANCH   1   7
TORSDOF 5
REMARK  Name = ../refined-set-2016/3f5k/3f5k_pocket.pdb
REMARK  281 active torsions:
REMARK  status: ('A' for Active; 'I' for Inactive)
REMARK    1  A    between atoms: _1  and  _3
REMARK    2  A    between atoms: _3  and  _4
REMARK    3  A    between atoms: _3  and  _6
REMARK    4  A    between atoms: _9  and  _11
REMARK    5  A    between atoms: _11  and  _12
REMARK    6  A    between atoms: _11  and  _14
REMARK    7  A    between atoms: _14  and  _15
REMARK    8  A    between atoms: _18  and  _20
REMARK    9  A    between atoms: _20  and  _21
REMARK   10  A    between atoms: _20  and  _23
REMARK   11  A    between atoms: _23  and  _24
REMARK   12  A    between atoms: _26  and  _28
REMARK   13  A    between atoms: _28  and  _29
REMARK   14  A    between atoms: _32  and  _34
REMARK   15  A    between atoms: _34  and  _35
REMARK   16  A    between atoms: _34  and  _37
REMARK   17  A    between atoms: _37  and  _38
REMARK   18  A    between atoms: _38  and  _39
REMARK   19  A    between atoms: _44  and  _46
REMARK   20  A    between atoms: _46  and  _47
REMARK   21  A    between atoms: _46  and  _49
REMARK   22  A    between atoms: _49  and  _50
REMARK   23  A    between atoms: _50  and  _51
REMARK   24  A    between atoms: _51  and  _52
REMARK   25  A    between atoms: _61  and  _63
REMARK   26  A    between atoms: _63  and  _64
REMARK   27  A    between atoms: _63  and  _66
REMARK   28  A    between atoms: _66  and  _67
REMARK   29  A    between atoms: _72  and  _74
REMARK   30  A    between atoms: _74  and  _75
REMARK   31  A    between atoms: _74  and  _77
REMARK   32  A    between atoms: _77  and  _78
REMARK   33  A    between atoms: _83  and  _85
REMARK   34  A    between atoms: _85  and  _86
REMARK   35  A    between atoms: _85  and  _88
REMARK   36  A    between atoms: _88  and  _89
REMARK   37  A    between atoms: _94  and  _95
REMARK   38  A    between atoms: _97  and  _99
REMARK   39  A    between atoms: _99  and  _100
REMARK   40  A    between atoms: _99  and  _102
REMARK   41  A    between atoms: _102  and  _103
REMARK   42  A    between atoms: _108  and  _110
REMARK   43  A    between atoms: _110  and  _111
REMARK   44  A    between atoms: _110  and  _113
REMARK   45  A    between atoms: _113  and  _114
REMARK   46  A    between atoms: _114  and  _115
REMARK   47  A    between atoms: _120  and  _122
REMARK   48  A    between atoms: _122  and  _123
REMARK   49  A    between atoms: _122  and  _125
REMARK   50  A    between atoms: _125  and  _126
REMARK   51  A    between atoms: _126  and  _127
REMARK   52  A    between atoms: _127  and  _128
REMARK   53  A    between atoms: _137  and  _139
REMARK   54  A    between atoms: _139  and  _140
REMARK   55  A    between atoms: _139  and  _142
REMARK   56  A    between atoms: _142  and  _143
REMARK   57  A    between atoms: _146  and  _148
REMARK   58  A    between atoms: _148  and  _149
REMARK   59  A    between atoms: _148  and  _151
REMARK   60  A    between atoms: _151  and  _152
REMARK   61  A    between atoms: _155  and  _157
REMARK   62  A    between atoms: _157  and  _158
REMARK   63  A    between atoms: _157  and  _160
REMARK   64  A    between atoms: _160  and  _161
REMARK   65  A    between atoms: _164  and  _166
REMARK   66  A    between atoms: _166  and  _167
REMARK   67  A    between atoms: _166  and  _169
REMARK   68  A    between atoms: _169  and  _170
REMARK   69  A    between atoms: _173  and  _175
REMARK   70  A    between atoms: _175  and  _176
REMARK   71  A    between atoms: _175  and  _178
REMARK   72  A    between atoms: _178  and  _179
REMARK   73  A    between atoms: _179  and  _180
REMARK   74  A    between atoms: _185  and  _187
REMARK   75  A    between atoms: _187  and  _188
REMARK   76  A    between atoms: _187  and  _190
REMARK   77  A    between atoms: _190  and  _191
REMARK   78  A    between atoms: _194  and  _196
REMARK   79  A    between atoms: _196  and  _197
REMARK   80  A    between atoms: _196  and  _199
REMARK   81  A    between atoms: _199  and  _200
REMARK   82  A    between atoms: _205  and  _207
REMARK   83  A    between atoms: _207  and  _208
REMARK   84  A    between atoms: _207  and  _210
REMARK   85  A    between atoms: _213  and  _215
REMARK   86  A    between atoms: _215  and  _216
REMARK   87  A    between atoms: _215  and  _218
REMARK   88  A    between atoms: _218  and  _219
REMARK   89  A    between atoms: _222  and  _224
REMARK   90  A    between atoms: _224  and  _225
REMARK   91  A    between atoms: _224  and  _227
REMARK   92  A    between atoms: _227  and  _228
REMARK   93  A    between atoms: _231  and  _233
REMARK   94  A    between atoms: _233  and  _234
REMARK   95  A    between atoms: _233  and  _236
REMARK   96  A    between atoms: _236  and  _237
REMARK   97  A    between atoms: _243  and  _245
REMARK   98  A    between atoms: _245  and  _246
REMARK   99  A    between atoms: _245  and  _248
REMARK  100  A    between atoms: _248  and  _249
REMARK  101  A    between atoms: _254  and  _256
REMARK  102  A    between atoms: _256  and  _257
REMARK  103  A    between atoms: _256  and  _259
REMARK  104  A    between atoms: _259  and  _260
REMARK  105  A    between atoms: _270  and  _272
REMARK  106  A    between atoms: _272  and  _273
REMARK  107  A    between atoms: _272  and  _275
REMARK  108  A    between atoms: _275  and  _276
REMARK  109  A    between atoms: _281  and  _282
REMARK  110  A    between atoms: _284  and  _286
REMARK  111  A    between atoms: _286  and  _287
REMARK  112  A    between atoms: _286  and  _289
REMARK  113  A    between atoms: _289  and  _290
REMARK  114  A    between atoms: _295  and  _297
REMARK  115  A    between atoms: _297  and  _298
REMARK  116  A    between atoms: _297  and  _300
REMARK  117  A    between atoms: _300  and  _301
REMARK  118  A    between atoms: _306  and  _308
REMARK  119  A    between atoms: _308  and  _309
REMARK  120  A    between atoms: _308  and  _311
REMARK  121  A    between atoms: _311  and  _312
REMARK  122  A    between atoms: _312  and  _313
REMARK  123  A    between atoms: _318  and  _320
REMARK  124  A    between atoms: _320  and  _321
REMARK  125  A    between atoms: _320  and  _323
REMARK  126  A    between atoms: _323  and  _324
REMARK  127  A    between atoms: _329  and  _330
REMARK  128  A    between atoms: _332  and  _334
REMARK  129  A    between atoms: _334  and  _335
REMARK  130  A    between atoms: _334  and  _337
REMARK  131  A    between atoms: _337  and  _338
REMARK  132  A    between atoms: _341  and  _343
REMARK  133  A    between atoms: _343  and  _344
REMARK  134  A    between atoms: _347  and  _349
REMARK  135  A    between atoms: _349  and  _350
REMARK  136  A    between atoms: _349  and  _352
REMARK  137  A    between atoms: _352  and  _353
REMARK  138  A    between atoms: _355  and  _357
REMARK  139  A    between atoms: _357  and  _358
REMARK  140  A    between atoms: _357  and  _360
REMARK  141  A    between atoms: _360  and  _361
REMARK  142  A    between atoms: _361  and  _362
REMARK  143  A    between atoms: _364  and  _366
REMARK  144  A    between atoms: _366  and  _367
REMARK  145  A    between atoms: _366  and  _369
REMARK  146  A    between atoms: _369  and  _370
REMARK  147  A    between atoms: _370  and  _371
REMARK  148  A    between atoms: _376  and  _378
REMARK  149  A    between atoms: _378  and  _379
REMARK  150  A    between atoms: _378  and  _381
REMARK  151  A    between atoms: _381  and  _382
REMARK  152  A    between atoms: _384  and  _386
REMARK  153  A    between atoms: _386  and  _387
REMARK  154  A    between atoms: _386  and  _389
REMARK  155  A    between atoms: _389  and  _390
REMARK  156  A    between atoms: _395  and  _396
REMARK  157  A    between atoms: _398  and  _400
REMARK  158  A    between atoms: _400  and  _401
REMARK  159  A    between atoms: _400  and  _403
REMARK  160  A    between atoms: _403  and  _404
REMARK  161  A    between atoms: _406  and  _408
REMARK  162  A    between atoms: _408  and  _409
REMARK  163  A    between atoms: _412  and  _414
REMARK  164  A    between atoms: _414  and  _415
REMARK  165  A    between atoms: _414  and  _417
REMARK  166  A    between atoms: _417  and  _418
REMARK  167  A    between atoms: _428  and  _430
REMARK  168  A    between atoms: _430  and  _431
REMARK  169  A    between atoms: _430  and  _433
REMARK  170  A    between atoms: _433  and  _434
REMARK  171  A    between atoms: _434  and  _435
REMARK  172  A    between atoms: _440  and  _442
REMARK  173  A    between atoms: _442  and  _443
REMARK  174  A    between atoms: _442  and  _445
REMARK  175  A    between atoms: _448  and  _450
REMARK  176  A    between atoms: _450  and  _451
REMARK  177  A    between atoms: _450  and  _453
REMARK  178  A    between atoms: _453  and  _454
REMARK  179  A    between atoms: _457  and  _459
REMARK  180  A    between atoms: _459  and  _460
REMARK  181  A    between atoms: _459  and  _462
REMARK  182  A    between atoms: _462  and  _463
REMARK  183  A    between atoms: _468  and  _469
REMARK  184  A    between atoms: _471  and  _473
REMARK  185  A    between atoms: _473  and  _474
REMARK  186  A    between atoms: _473  and  _476
REMARK  187  A    between atoms: _479  and  _481
REMARK  188  A    between atoms: _481  and  _482
REMARK  189  A    between atoms: _481  and  _484
REMARK  190  A    between atoms: _484  and  _485
REMARK  191  A    between atoms: _491  and  _493
REMARK  192  A    between atoms: _493  and  _494
REMARK  193  A    between atoms: _493  and  _496
REMARK  194  A    between atoms: _496  and  _497
REMARK  195  A    between atoms: _497  and  _498
REMARK  196  A    between atoms: _503  and  _505
REMARK  197  A    between atoms: _505  and  _506
REMARK  198  A    between atoms: _505  and  _508
REMARK  199  A    between atoms: _508  and  _509
REMARK  200  A    between atoms: _511  and  _513
REMARK  201  A    between atoms: _513  and  _514
REMARK  202  A    between atoms: _513  and  _516
REMARK  203  A    between atoms: _516  and  _517
REMARK  204  A    between atoms: _522  and  _524
REMARK  205  A    between atoms: _524  and  _525
REMARK  206  A    between atoms: _524  and  _527
REMARK  207  A    between atoms: _527  and  _528
REMARK  208  A    between atoms: _538  and  _540
REMARK  209  A    between atoms: _540  and  _541
REMARK  210  A    between atoms: _540  and  _543
REMARK  211  A    between atoms: _543  and  _544
REMARK  212  A    between atoms: _547  and  _549
REMARK  213  A    between atoms: _549  and  _550
REMARK  214  A    between atoms: _549  and  _552
REMARK  215  A    between atoms: _552  and  _553
REMARK  216  A    between atoms: _558  and  _559
REMARK  217  A    between atoms: _561  and  _563
REMARK  218  A    between atoms: _563  and  _564
REMARK  219  A    between atoms: _563  and  _566
REMARK  220  A    between atoms: _566  and  _567
REMARK  221  A    between atoms: _570  and  _572
REMARK  222  A    between atoms: _572  and  _573
REMARK  223  A    between atoms: _572  and  _575
REMARK  224  A    between atoms: _575  and  _576
REMARK  225  A    between atoms: _576  and  _577
REMARK  226  A    between atoms: _580  and  _582
REMARK  227  A    between atoms: _582  and  _583
REMARK  228  A    between atoms: _582  and  _585
REMARK  229  A    between atoms: _585  and  _586
REMARK  230  A    between atoms: _591  and  _593
REMARK  231  A    between atoms: _593  and  _594
REMARK  232  A    between atoms: _596  and  _598
REMARK  233  A    between atoms: _598  and  _599
REMARK  234  A    between atoms: _598  and  _601
REMARK  235  A    between atoms: _601  and  _602
REMARK  236  A    between atoms: _602  and  _603
REMARK  237  A    between atoms: _605  and  _607
REMARK  238  A    between atoms: _607  and  _608
REMARK  239  A    between atoms: _607  and  _610
REMARK  240  A    between atoms: _610  and  _611
REMARK  241  A    between atoms: _614  and  _616
REMARK  242  A    between atoms: _616  and  _617
REMARK  243  A    between atoms: _616  and  _619
REMARK  244  A    between atoms: _619  and  _620
REMARK  245  A    between atoms: _630  and  _632
REMARK  246  A    between atoms: _632  and  _633
REMARK  247  A    between atoms: _632  and  _635
REMARK  248  A    between atoms: _635  and  _636
REMARK  249  A    between atoms: _638  and  _640
REMARK  250  A    between atoms: _640  and  _641
REMARK  251  A    between atoms: _640  and  _643
REMARK  252  A    between atoms: _643  and  _644
REMARK  253  A    between atoms: _649  and  _651
REMARK  254  A    between atoms: _651  and  _652
REMARK  255  A    between atoms: _651  and  _654
REMARK  256  A    between atoms: _654  and  _655
REMARK  257  A    between atoms: _661  and  _663
REMARK  258  A    between atoms: _663  and  _664
REMARK  259  A    between atoms: _663  and  _666
REMARK  260  A    between atoms: _666  and  _667
REMARK  261  A    between atoms: _667  and  _668
REMARK  262  A    between atoms: _671  and  _673
REMARK  263  A    between atoms: _673  and  _674
REMARK  264  A    between atoms: _673  and  _676
REMARK  265  A    between atoms: _676  and  _677
REMARK  266  A    between atoms: _687  and  _689
REMARK  267  A    between atoms: _689  and  _690
REMARK  268  A    between atoms: _689  and  _692
REMARK  269  A    between atoms: _692  and  _693
REMARK  270  A    between atoms: _696  and  _698
REMARK  271  A    between atoms: _698  and  _699
REMARK  272  A    between atoms: _698  and  _701
REMARK  273  A    between atoms: _701  and  _702
REMARK  274  A    between atoms: _704  and  _706
REMARK  275  A    between atoms: _706  and  _707
REMARK  276  A    between atoms: _706  and  _709
REMARK  277  A    between atoms: _709  and  _710
REMARK  278  A    between atoms: _712  and  _714
REMARK  279  A    between atoms: _714  and  _715
REMARK  280  A    between atoms: _714  and  _717
REMARK  281  A    between atoms: _717  and  _718
REMARK                            x       y       z     vdW  Elec       q    Type
REMARK                         _______ _______ _______ _____ _____    ______ ____
ROOT
ATOM      1  NE  ARG A   1      13.581   1.080  32.070  0.00  0.00    -0.265 N 
ATOM      2  CZ  ARG A   1      12.563   0.925  32.901  0.00  0.00    +0.342 C 
ATOM      3  NH2 ARG A   1      11.947   1.980  33.409  0.00  0.00    -0.292 N 
ATOM      4 HH21 ARG A   1      11.148   1.851  34.062  0.00  0.00    +0.255 HD
ATOM      5 HH22 ARG A   1      12.262   2.938  33.156  0.00  0.00    +0.255 HD
ATOM      6  NH1 ARG A   1      12.204  -0.305  33.245  0.00  0.00    -0.292 N 
ATOM      7 HH11 ARG A   1      11.407  -0.451  33.897  0.00  0.00    +0.255 HD
ATOM      8 HH12 ARG A   1      12.720  -1.123  32.863  0.00  0.00    +0.255 HD
ATOM      9  HE  ARG A   1      14.083   0.225  31.757  0.00  0.00    +0.259 HD
ENDROOT
BRANCH   1  10
ATOM     10  CD  ARG A   1      14.052   2.371  31.558  0.00  0.00    +0.174 C 
BRANCH  10  11
ATOM     11  CG  ARG A   1      14.008   2.251  30.028  0.00  0.00    +0.045 C 
BRANCH  11  12
ATOM     12  CB  ARG A   1      14.243   3.561  29.276  0.00  0.00    +0.029 C 
BRANCH  12  13
ATOM     13  CA  ARG A   1      14.346   3.366  27.749  0.00  0.00    +0.133 C 
BRANCH  13  14
ATOM     14  N   ARG A   1      14.405   4.649  27.050  0.00  0.00    -0.239 NA
ATOM     15  H   ARG A   1      13.829   5.444  27.393  0.00  0.00    +0.142 HD
ENDBRANCH  13  14
BRANCH  13  16
ATOM     16  C   ARG A   1      13.117   2.633  27.206  0.00  0.00    +0.224 C 
ATOM     17  O   ARG A   1      11.982   3.137  27.257  0.00  0.00    -0.287 OA
ENDBRANCH  13  16
ENDBRANCH  12  13
ENDBRANCH  11  12
ENDBRANCH  10  11
ENDBRANCH   1  10
TORSDOF 6
REMARK  Name = ../refined-set-2016/3f5k/3f5k_pocket.pdb
REMARK  281 active torsions:
REMARK  status: ('A' for Active; 'I' for Inactive)
REMARK    1  A    between atoms: _1  and  _3
REMARK    2  A    between atoms: _3  and  _4
REMARK    3  A    between atoms: _3  and  _6
REMARK    4  A    between atoms: _9  and  _11
REMARK    5  A    between atoms: _11  and  _12
REMARK    6  A    between atoms: _11  and  _14
REMARK    7  A    between atoms: _14  and  _15
REMARK    8  A    between atoms: _18  and  _20
REMARK    9  A    between atoms: _20  and  _21
REMARK   10  A    between atoms: _20  and  _23
REMARK   11  A    between atoms: _23  and  _24
REMARK   12  A    between atoms: _26  and  _28
REMARK   13  A    between atoms: _28  and  _29
REMARK   14  A    between atoms: _32  and  _34
REMARK   15  A    between atoms: _34  and  _35
REMARK   16  A    between atoms: _34  and  _37
REMARK   17  A    between atoms: _37  and  _38
REMARK   18  A    between atoms: _38  and  _39
REMARK   19  A    between atoms: _44  and  _46
REMARK   20  A    between atoms: _46  and  _47
REMARK   21  A    between atoms: _46  and  _49
REMARK   22  A    between atoms: _49  and  _50
REMARK   23  A    between atoms: _50  and  _51
REMARK   24  A    between atoms: _51  and  _52
REMARK   25  A    between atoms: _61  and  _63
REMARK   26  A    between atoms: _63  and  _64
REMARK   27  A    between atoms: _63  and  _66
REMARK   28  A    between atoms: _66  and  _67
REMARK   29  A    between atoms: _72  and  _74
REMARK   30  A    between atoms: _74  and  _75
REMARK   31  A    between atoms: _74  and  _77
REMARK   32  A    between atoms: _77  and  _78
REMARK   33  A    between atoms: _83  and  _85
REMARK   34  A    between atoms: _85  and  _86
REMARK   35  A    between atoms: _85  and  _88
REMARK   36  A    between atoms: _88  and  _89
REMARK   37  A    between atoms: _94  and  _95
REMARK   38  A    between atoms: _97  and  _99
REMARK   39  A    between atoms: _99  and  _100
REMARK   40  A    between atoms: _99  and  _102
REMARK   41  A    between atoms: _102  and  _103
REMARK   42  A    between atoms: _108  and  _110
REMARK   43  A    between atoms: _110  and  _111
REMARK   44  A    between atoms: _110  and  _113
REMARK   45  A    between atoms: _113  and  _114
REMARK   46  A    between atoms: _114  and  _115
REMARK   47  A    between atoms: _120  and  _122
REMARK   48  A    between atoms: _122  and  _123
REMARK   49  A    between atoms: _122  and  _125
REMARK   50  A    between atoms: _125  and  _126
REMARK   51  A    between atoms: _126  and  _127
REMARK   52  A    between atoms: _127  and  _128
REMARK   53  A    between atoms: _137  and  _139
REMARK   54  A    between atoms: _139  and  _140
REMARK   55  A    between atoms: _139  and  _142
REMARK   56  A    between atoms: _142  and  _143
REMARK   57  A    between atoms: _146  and  _148
REMARK   58  A    between atoms: _148  and  _149
REMARK   59  A    between atoms: _148  and  _151
REMARK   60  A    between atoms: _151  and  _152
REMARK   61  A    between atoms: _155  and  _157
REMARK   62  A    between atoms: _157  and  _158
REMARK   63  A    between atoms: _157  and  _160
REMARK   64  A    between atoms: _160  and  _161
REMARK   65  A    between atoms: _164  and  _166
REMARK   66  A    between atoms: _166  and  _167
REMARK   67  A    between atoms: _166  and  _169
REMARK   68  A    between atoms: _169  and  _170
REMARK   69  A    between atoms: _173  and  _175
REMARK   70  A    between atoms: _175  and  _176
REMARK   71  A    between atoms: _175  and  _178
REMARK   72  A    between atoms: _178  and  _179
REMARK   73  A    between atoms: _179  and  _180
REMARK   74  A    between atoms: _185  and  _187
REMARK   75  A    between atoms: _187  and  _188
REMARK   76  A    between atoms: _187  and  _190
REMARK   77  A    between atoms: _190  and  _191
REMARK   78  A    between atoms: _194  and  _196
REMARK   79  A    between atoms: _196  and  _197
REMARK   80  A    between atoms: _196  and  _199
REMARK   81  A    between atoms: _199  and  _200
REMARK   82  A    between atoms: _205  and  _207
REMARK   83  A    between atoms: _207  and  _208
REMARK   84  A    between atoms: _207  and  _210
REMARK   85  A    between atoms: _213  and  _215
REMARK   86  A    between atoms: _215  and  _216
REMARK   87  A    between atoms: _215  and  _218
REMARK   88  A    between atoms: _218  and  _219
REMARK   89  A    between atoms: _222  and  _224
REMARK   90  A    between atoms: _224  and  _225
REMARK   91  A    between atoms: _224  and  _227
REMARK   92  A    between atoms: _227  and  _228
REMARK   93  A    between atoms: _231  and  _233
REMARK   94  A    between atoms: _233  and  _234
REMARK   95  A    between atoms: _233  and  _236
REMARK   96  A    between atoms: _236  and  _237
REMARK   97  A    between atoms: _243  and  _245
REMARK   98  A    between atoms: _245  and  _246
REMARK   99  A    between atoms: _245  and  _248
REMARK  100  A    between atoms: _248  and  _249
REMARK  101  A    between atoms: _254  and  _256
REMARK  102  A    between atoms: _256  and  _257
REMARK  103  A    between atoms: _256  and  _259
REMARK  104  A    between atoms: _259  and  _260
REMARK  105  A    between atoms: _270  and  _272
REMARK  106  A    between atoms: _272  and  _273
REMARK  107  A    between atoms: _272  and  _275
REMARK  108  A    between atoms: _275  and  _276
REMARK  109  A    between atoms: _281  and  _282
REMARK  110  A    between atoms: _284  and  _286
REMARK  111  A    between atoms: _286  and  _287
REMARK  112  A    between atoms: _286  and  _289
REMARK  113  A    between atoms: _289  and  _290
REMARK  114  A    between atoms: _295  and  _297
REMARK  115  A    between atoms: _297  and  _298
REMARK  116  A    between atoms: _297  and  _300
REMARK  117  A    between atoms: _300  and  _301
REMARK  118  A    between atoms: _306  and  _308
REMARK  119  A    between atoms: _308  and  _309
REMARK  120  A    between atoms: _308  and  _311
REMARK  121  A    between atoms: _311  and  _312
REMARK  122  A    between atoms: _312  and  _313
REMARK  123  A    between atoms: _318  and  _320
REMARK  124  A    between atoms: _320  and  _321
REMARK  125  A    between atoms: _320  and  _323
REMARK  126  A    between atoms: _323  and  _324
REMARK  127  A    between atoms: _329  and  _330
REMARK  128  A    between atoms: _332  and  _334
REMARK  129  A    between atoms: _334  and  _335
REMARK  130  A    between atoms: _334  and  _337
REMARK  131  A    between atoms: _337  and  _338
REMARK  132  A    between atoms: _341  and  _343
REMARK  133  A    between atoms: _343  and  _344
REMARK  134  A    between atoms: _347  and  _349
REMARK  135  A    between atoms: _349  and  _350
REMARK  136  A    between atoms: _349  and  _352
REMARK  137  A    between atoms: _352  and  _353
REMARK  138  A    between atoms: _355  and  _357
REMARK  139  A    between atoms: _357  and  _358
REMARK  140  A    between atoms: _357  and  _360
REMARK  141  A    between atoms: _360  and  _361
REMARK  142  A    between atoms: _361  and  _362
REMARK  143  A    between atoms: _364  and  _366
REMARK  144  A    between atoms: _366  and  _367
REMARK  145  A    between atoms: _366  and  _369
REMARK  146  A    between atoms: _369  and  _370
REMARK  147  A    between atoms: _370  and  _371
REMARK  148  A    between atoms: _376  and  _378
REMARK  149  A    between atoms: _378  and  _379
REMARK  150  A    between atoms: _378  and  _381
REMARK  151  A    between atoms: _381  and  _382
REMARK  152  A    between atoms: _384  and  _386
REMARK  153  A    between atoms: _386  and  _387
REMARK  154  A    between atoms: _386  and  _389
REMARK  155  A    between atoms: _389  and  _390
REMARK  156  A    between atoms: _395  and  _396
REMARK  157  A    between atoms: _398  and  _400
REMARK  158  A    between atoms: _400  and  _401
REMARK  159  A    between atoms: _400  and  _403
REMARK  160  A    between atoms: _403  and  _404
REMARK  161  A    between atoms: _406  and  _408
REMARK  162  A    between atoms: _408  and  _409
REMARK  163  A    between atoms: _412  and  _414
REMARK  164  A    between atoms: _414  and  _415
REMARK  165  A    between atoms: _414  and  _417
REMARK  166  A    between atoms: _417  and  _418
REMARK  167  A    between atoms: _428  and  _430
REMARK  168  A    between atoms: _430  and  _431
REMARK  169  A    between atoms: _430  and  _433
REMARK  170  A    between atoms: _433  and  _434
REMARK  171  A    between atoms: _434  and  _435
REMARK  172  A    between atoms: _440  and  _442
REMARK  173  A    between atoms: _442  and  _443
REMARK  174  A    between atoms: _442  and  _445
REMARK  175  A    between atoms: _448  and  _450
REMARK  176  A    between atoms: _450  and  _451
REMARK  177  A    between atoms: _450  and  _453
REMARK  178  A    between atoms: _453  and  _454
REMARK  179  A    between atoms: _457  and  _459
REMARK  180  A    between atoms: _459  and  _460
REMARK  181  A    between atoms: _459  and  _462
REMARK  182  A    between atoms: _462  and  _463
REMARK  183  A    between atoms: _468  and  _469
REMARK  184  A    between atoms: _471  and  _473
REMARK  185  A    between atoms: _473  and  _474
REMARK  186  A    between atoms: _473  and  _476
REMARK  187  A    between atoms: _479  and  _481
REMARK  188  A    between atoms: _481  and  _482
REMARK  189  A    between atoms: _481  and  _484
REMARK  190  A    between atoms: _484  and  _485
REMARK  191  A    between atoms: _491  and  _493
REMARK  192  A    between atoms: _493  and  _494
REMARK  193  A    between atoms: _493  and  _496
REMARK  194  A    between atoms: _496  and  _497
REMARK  195  A    between atoms: _497  and  _498
REMARK  196  A    between atoms: _503  and  _505
REMARK  197  A    between atoms: _505  and  _506
REMARK  198  A    between atoms: _505  and  _508
REMARK  199  A    between atoms: _508  and  _509
REMARK  200  A    between atoms: _511  and  _513
REMARK  201  A    between atoms: _513  and  _514
REMARK  202  A    between atoms: _513  and  _516
REMARK  203  A    between atoms: _516  and  _517
REMARK  204  A    between atoms: _522  and  _524
REMARK  205  A    between atoms: _524  and  _525
REMARK  206  A    between atoms: _524  and  _527
REMARK  207  A    between atoms: _527  and  _528
REMARK  208  A    between atoms: _538  and  _540
REMARK  209  A    between atoms: _540  and  _541
REMARK  210  A    between atoms: _540  and  _543
REMARK  211  A    between atoms: _543  and  _544
REMARK  212  A    between atoms: _547  and  _549
REMARK  213  A    between atoms: _549  and  _550
REMARK  214  A    between atoms: _549  and  _552
REMARK  215  A    between atoms: _552  and  _553
REMARK  216  A    between atoms: _558  and  _559
REMARK  217  A    between atoms: _561  and  _563
REMARK  218  A    between atoms: _563  and  _564
REMARK  219  A    between atoms: _563  and  _566
REMARK  220  A    between atoms: _566  and  _567
REMARK  221  A    between atoms: _570  and  _572
REMARK  222  A    between atoms: _572  and  _573
REMARK  223  A    between atoms: _572  and  _575
REMARK  224  A    between atoms: _575  and  _576
REMARK  225  A    between atoms: _576  and  _577
REMARK  226  A    between atoms: _580  and  _582
REMARK  227  A    between atoms: _582  and  _583
REMARK  228  A    between atoms: _582  and  _585
REMARK  229  A    between atoms: _585  and  _586
REMARK  230  A    between atoms: _591  and  _593
REMARK  231  A    between atoms: _593  and  _594
REMARK  232  A    between atoms: _596  and  _598
REMARK  233  A    between atoms: _598  and  _599
REMARK  234  A    between atoms: _598  and  _601
REMARK  235  A    between atoms: _601  and  _602
REMARK  236  A    between atoms: _602  and  _603
REMARK  237  A    between atoms: _605  and  _607
REMARK  238  A    between atoms: _607  and  _608
REMARK  239  A    between atoms: _607  and  _610
REMARK  240  A    between atoms: _610  and  _611
REMARK  241  A    between atoms: _614  and  _616
REMARK  242  A    between atoms: _616  and  _617
REMARK  243  A    between atoms: _616  and  _619
REMARK  244  A    between atoms: _619  and  _620
REMARK  245  A    between atoms: _630  and  _632
REMARK  246  A    between atoms: _632  and  _633
REMARK  247  A    between atoms: _632  and  _635
REMARK  248  A    between atoms: _635  and  _636
REMARK  249  A    between atoms: _638  and  _640
REMARK  250  A    between atoms: _640  and  _641
REMARK  251  A    between atoms: _640  and  _643
REMARK  252  A    between atoms: _643  and  _644
REMARK  253  A    between atoms: _649  and  _651
REMARK  254  A    between atoms: _651  and  _652
REMARK  255  A    between atoms: _651  and  _654
REMARK  256  A    between atoms: _654  and  _655
REMARK  257  A    between atoms: _661  and  _663
REMARK  258  A    between atoms: _663  and  _664
REMARK  259  A    between atoms: _663  and  _666
REMARK  260  A    between atoms: _666  and  _667
REMARK  261  A    between atoms: _667  and  _668
REMARK  262  A    between atoms: _671  and  _673
REMARK  263  A    between atoms: _673  and  _674
REMARK  264  A    between atoms: _673  and  _676
REMARK  265  A    between atoms: _676  and  _677
REMARK  266  A    between atoms: _687  and  _689
REMARK  267  A    between atoms: _689  and  _690
REMARK  268  A    between atoms: _689  and  _692
REMARK  269  A    between atoms: _692  and  _693
REMARK  270  A    between atoms: _696  and  _698
REMARK  271  A    between atoms: _698  and  _699
REMARK  272  A    between atoms: _698  and  _701
REMARK  273  A    between atoms: _701  and  _702
REMARK  274  A    between atoms: _704  and  _706
REMARK  275  A    between atoms: _706  and  _707
REMARK  276  A    between atoms: _706  and  _709
REMARK  277  A    between atoms: _709  and  _710
REMARK  278  A    between atoms: _712  and  _714
REMARK  279  A    between atoms: _714  and  _715
REMARK  280  A    between atoms: _714  and  _717
REMARK  281  A    between atoms: _717  and  _718
REMARK                            x       y       z     vdW  Elec       q    Type
REMARK                         _______ _______ _______ _____ _____    ______ ____
ROOT
ATOM      1  CB  ASN A   1      13.931  -3.134  30.154  0.00  0.00    +0.110 C 
ENDROOT
BRANCH   1   2
ATOM      2  CG  ASN A   1      14.094  -2.768  31.599  0.00  0.00    +0.221 C 
ATOM      3  ND2 ASN A   1      13.842  -3.727  32.481  0.00  0.00    -0.329 N 
ATOM      4 HD21 ASN A   1      13.928  -3.533  33.499  0.00  0.00    +0.145 HD
ATOM      5 HD22 ASN A   1      13.559  -4.673  32.154  0.00  0.00    +0.145 HD
ATOM      6  OD1 ASN A   1      14.433  -1.630  31.925  0.00  0.00    -0.275 OA
ENDBRANCH   1   2
BRANCH   1   7
ATOM      7  CA  ASN A   1      15.236  -3.598  29.526  0.00  0.00    +0.142 C 
BRANCH   7   8
ATOM      8  N   ASN A   1      15.688  -2.649  28.546  0.00  0.00    -0.239 NA
ATOM      9  H   ASN A   1      14.982  -2.046  28.077  0.00  0.00    +0.142 HD
ENDBRANCH   7   8
BRANCH   7  10
ATOM     10  C   ASN A   1      15.005  -4.964  28.876  0.00  0.00    +0.225 C 
ATOM     11  O   ASN A   1      14.367  -5.063  27.821  0.00  0.00    -0.287 OA
ENDBRANCH   7  10
ENDBRANCH   1   7
TORSDOF 4
REMARK  Name = ../refined-set-2016/3f5k/3f5k_pocket.pdb
REMARK  281 active torsions:
REMARK  status: ('A' for Active; 'I' for Inactive)
REMARK    1  A    between atoms: _1  and  _3
REMARK    2  A    between atoms: _3  and  _4
REMARK    3  A    between atoms: _3  and  _6
REMARK    4  A    between atoms: _9  and  _11
REMARK    5  A    between atoms: _11  and  _12
REMARK    6  A    between atoms: _11  and  _14
REMARK    7  A    between atoms: _14  and  _15
REMARK    8  A    between atoms: _18  and  _20
REMARK    9  A    between atoms: _20  and  _21
REMARK   10  A    between atoms: _20  and  _23
REMARK   11  A    between atoms: _23  and  _24
REMARK   12  A    between atoms: _26  and  _28
REMARK   13  A    between atoms: _28  and  _29
REMARK   14  A    between atoms: _32  and  _34
REMARK   15  A    between atoms: _34  and  _35
REMARK   16  A    between atoms: _34  and  _37
REMARK   17  A    between atoms: _37  and  _38
REMARK   18  A    between atoms: _38  and  _39
REMARK   19  A    between atoms: _44  and  _46
REMARK   20  A    between atoms: _46  and  _47
REMARK   21  A    between atoms: _46  and  _49
REMARK   22  A    between atoms: _49  and  _50
REMARK   23  A    between atoms: _50  and  _51
REMARK   24  A    between atoms: _51  and  _52
REMARK   25  A    between atoms: _61  and  _63
REMARK   26  A    between atoms: _63  and  _64
REMARK   27  A    between atoms: _63  and  _66
REMARK   28  A    between atoms: _66  and  _67
REMARK   29  A    between atoms: _72  and  _74
REMARK   30  A    between atoms: _74  and  _75
REMARK   31  A    between atoms: _74  and  _77
REMARK   32  A    between atoms: _77  and  _78
REMARK   33  A    between atoms: _83  and  _85
REMARK   34  A    between atoms: _85  and  _86
REMARK   35  A    between atoms: _85  and  _88
REMARK   36  A    between atoms: _88  and  _89
REMARK   37  A    between atoms: _94  and  _95
REMARK   38  A    between atoms: _97  and  _99
REMARK   39  A    between atoms: _99  and  _100
REMARK   40  A    between atoms: _99  and  _102
REMARK   41  A    between atoms: _102  and  _103
REMARK   42  A    between atoms: _108  and  _110
REMARK   43  A    between atoms: _110  and  _111
REMARK   44  A    between atoms: _110  and  _113
REMARK   45  A    between atoms: _113  and  _114
REMARK   46  A    between atoms: _114  and  _115
REMARK   47  A    between atoms: _120  and  _122
REMARK   48  A    between atoms: _122  and  _123
REMARK   49  A    between atoms: _122  and  _125
REMARK   50  A    between atoms: _125  and  _126
REMARK   51  A    between atoms: _126  and  _127
REMARK   52  A    between atoms: _127  and  _128
REMARK   53  A    between atoms: _137  and  _139
REMARK   54  A    between atoms: _139  and  _140
REMARK   55  A    between atoms: _139  and  _142
REMARK   56  A    between atoms: _142  and  _143
REMARK   57  A    between atoms: _146  and  _148
REMARK   58  A    between atoms: _148  and  _149
REMARK   59  A    between atoms: _148  and  _151
REMARK   60  A    between atoms: _151  and  _152
REMARK   61  A    between atoms: _155  and  _157
REMARK   62  A    between atoms: _157  and  _158
REMARK   63  A    between atoms: _157  and  _160
REMARK   64  A    between atoms: _160  and  _161
REMARK   65  A    between atoms: _164  and  _166
REMARK   66  A    between atoms: _166  and  _167
REMARK   67  A    between atoms: _166  and  _169
REMARK   68  A    between atoms: _169  and  _170
REMARK   69  A    between atoms: _173  and  _175
REMARK   70  A    between atoms: _175  and  _176
REMARK   71  A    between atoms: _175  and  _178
REMARK   72  A    between atoms: _178  and  _179
REMARK   73  A    between atoms: _179  and  _180
REMARK   74  A    between atoms: _185  and  _187
REMARK   75  A    between atoms: _187  and  _188
REMARK   76  A    between atoms: _187  and  _190
REMARK   77  A    between atoms: _190  and  _191
REMARK   78  A    between atoms: _194  and  _196
REMARK   79  A    between atoms: _196  and  _197
REMARK   80  A    between atoms: _196  and  _199
REMARK   81  A    between atoms: _199  and  _200
REMARK   82  A    between atoms: _205  and  _207
REMARK   83  A    between atoms: _207  and  _208
REMARK   84  A    between atoms: _207  and  _210
REMARK   85  A    between atoms: _213  and  _215
REMARK   86  A    between atoms: _215  and  _216
REMARK   87  A    between atoms: _215  and  _218
REMARK   88  A    between atoms: _218  and  _219
REMARK   89  A    between atoms: _222  and  _224
REMARK   90  A    between atoms: _224  and  _225
REMARK   91  A    between atoms: _224  and  _227
REMARK   92  A    between atoms: _227  and  _228
REMARK   93  A    between atoms: _231  and  _233
REMARK   94  A    between atoms: _233  and  _234
REMARK   95  A    between atoms: _233  and  _236
REMARK   96  A    between atoms: _236  and  _237
REMARK   97  A    between atoms: _243  and  _245
REMARK   98  A    between atoms: _245  and  _246
REMARK   99  A    between atoms: _245  and  _248
REMARK  100  A    between atoms: _248  and  _249
REMARK  101  A    between atoms: _254  and  _256
REMARK  102  A    between atoms: _256  and  _257
REMARK  103  A    between atoms: _256  and  _259
REMARK  104  A    between atoms: _259  and  _260
REMARK  105  A    between atoms: _270  and  _272
REMARK  106  A    between atoms: _272  and  _273
REMARK  107  A    between atoms: _272  and  _275
REMARK  108  A    between atoms: _275  and  _276
REMARK  109  A    between atoms: _281  and  _282
REMARK  110  A    between atoms: _284  and  _286
REMARK  111  A    between atoms: _286  and  _287
REMARK  112  A    between atoms: _286  and  _289
REMARK  113  A    between atoms: _289  and  _290
REMARK  114  A    between atoms: _295  and  _297
REMARK  115  A    between atoms: _297  and  _298
REMARK  116  A    between atoms: _297  and  _300
REMARK  117  A    between atoms: _300  and  _301
REMARK  118  A    between atoms: _306  and  _308
REMARK  119  A    between atoms: _308  and  _309
REMARK  120  A    between atoms: _308  and  _311
REMARK  121  A    between atoms: _311  and  _312
REMARK  122  A    between atoms: _312  and  _313
REMARK  123  A    between atoms: _318  and  _320
REMARK  124  A    between atoms: _320  and  _321
REMARK  125  A    between atoms: _320  and  _323
REMARK  126  A    between atoms: _323  and  _324
REMARK  127  A    between atoms: _329  and  _330
REMARK  128  A    between atoms: _332  and  _334
REMARK  129  A    between atoms: _334  and  _335
REMARK  130  A    between atoms: _334  and  _337
REMARK  131  A    between atoms: _337  and  _338
REMARK  132  A    between atoms: _341  and  _343
REMARK  133  A    between atoms: _343  and  _344
REMARK  134  A    between atoms: _347  and  _349
REMARK  135  A    between atoms: _349  and  _350
REMARK  136  A    between atoms: _349  and  _352
REMARK  137  A    between atoms: _352  and  _353
REMARK  138  A    between atoms: _355  and  _357
REMARK  139  A    between atoms: _357  and  _358
REMARK  140  A    between atoms: _357  and  _360
REMARK  141  A    between atoms: _360  and  _361
REMARK  142  A    between atoms: _361  and  _362
REMARK  143  A    between atoms: _364  and  _366
REMARK  144  A    between atoms: _366  and  _367
REMARK  145  A    between atoms: _366  and  _369
REMARK  146  A    between atoms: _369  and  _370
REMARK  147  A    between atoms: _370  and  _371
REMARK  148  A    between atoms: _376  and  _378
REMARK  149  A    between atoms: _378  and  _379
REMARK  150  A    between atoms: _378  and  _381
REMARK  151  A    between atoms: _381  and  _382
REMARK  152  A    between atoms: _384  and  _386
REMARK  153  A    between atoms: _386  and  _387
REMARK  154  A    between atoms: _386  and  _389
REMARK  155  A    between atoms: _389  and  _390
REMARK  156  A    between atoms: _395  and  _396
REMARK  157  A    between atoms: _398  and  _400
REMARK  158  A    between atoms: _400  and  _401
REMARK  159  A    between atoms: _400  and  _403
REMARK  160  A    between atoms: _403  and  _404
REMARK  161  A    between atoms: _406  and  _408
REMARK  162  A    between atoms: _408  and  _409
REMARK  163  A    between atoms: _412  and  _414
REMARK  164  A    between atoms: _414  and  _415
REMARK  165  A    between atoms: _414  and  _417
REMARK  166  A    between atoms: _417  and  _418
REMARK  167  A    between atoms: _428  and  _430
REMARK  168  A    between atoms: _430  and  _431
REMARK  169  A    between atoms: _430  and  _433
REMARK  170  A    between atoms: _433  and  _434
REMARK  171  A    between atoms: _434  and  _435
REMARK  172  A    between atoms: _440  and  _442
REMARK  173  A    between atoms: _442  and  _443
REMARK  174  A    between atoms: _442  and  _445
REMARK  175  A    between atoms: _448  and  _450
REMARK  176  A    between atoms: _450  and  _451
REMARK  177  A    between atoms: _450  and  _453
REMARK  178  A    between atoms: _453  and  _454
REMARK  179  A    between atoms: _457  and  _459
REMARK  180  A    between atoms: _459  and  _460
REMARK  181  A    between atoms: _459  and  _462
REMARK  182  A    between atoms: _462  and  _463
REMARK  183  A    between atoms: _468  and  _469
REMARK  184  A    between atoms: _471  and  _473
REMARK  185  A    between atoms: _473  and  _474
REMARK  186  A    between atoms: _473  and  _476
REMARK  187  A    between atoms: _479  and  _481
REMARK  188  A    between atoms: _481  and  _482
REMARK  189  A    between atoms: _481  and  _484
REMARK  190  A    between atoms: _484  and  _485
REMARK  191  A    between atoms: _491  and  _493
REMARK  192  A    between atoms: _493  and  _494
REMARK  193  A    between atoms: _493  and  _496
REMARK  194  A    between atoms: _496  and  _497
REMARK  195  A    between atoms: _497  and  _498
REMARK  196  A    between atoms: _503  and  _505
REMARK  197  A    between atoms: _505  and  _506
REMARK  198  A    between atoms: _505  and  _508
REMARK  199  A    between atoms: _508  and  _509
REMARK  200  A    between atoms: _511  and  _513
REMARK  201  A    between atoms: _513  and  _514
REMARK  202  A    between atoms: _513  and  _516
REMARK  203  A    between atoms: _516  and  _517
REMARK  204  A    between atoms: _522  and  _524
REMARK  205  A    between atoms: _524  and  _525
REMARK  206  A    between atoms: _524  and  _527
REMARK  207  A    between atoms: _527  and  _528
REMARK  208  A    between atoms: _538  and  _540
REMARK  209  A    between atoms: _540  and  _541
REMARK  210  A    between atoms: _540  and  _543
REMARK  211  A    between atoms: _543  and  _544
REMARK  212  A    between atoms: _547  and  _549
REMARK  213  A    between atoms: _549  and  _550
REMARK  214  A    between atoms: _549  and  _552
REMARK  215  A    between atoms: _552  and  _553
REMARK  216  A    between atoms: _558  and  _559
REMARK  217  A    between atoms: _561  and  _563
REMARK  218  A    between atoms: _563  and  _564
REMARK  219  A    between atoms: _563  and  _566
REMARK  220  A    between atoms: _566  and  _567
REMARK  221  A    between atoms: _570  and  _572
REMARK  222  A    between atoms: _572  and  _573
REMARK  223  A    between atoms: _572  and  _575
REMARK  224  A    between atoms: _575  and  _576
REMARK  225  A    between atoms: _576  and  _577
REMARK  226  A    between atoms: _580  and  _582
REMARK  227  A    between atoms: _582  and  _583
REMARK  228  A    between atoms: _582  and  _585
REMARK  229  A    between atoms: _585  and  _586
REMARK  230  A    between atoms: _591  and  _593
REMARK  231  A    between atoms: _593  and  _594
REMARK  232  A    between atoms: _596  and  _598
REMARK  233  A    between atoms: _598  and  _599
REMARK  234  A    between atoms: _598  and  _601
REMARK  235  A    between atoms: _601  and  _602
REMARK  236  A    between atoms: _602  and  _603
REMARK  237  A    between atoms: _605  and  _607
REMARK  238  A    between atoms: _607  and  _608
REMARK  239  A    between atoms: _607  and  _610
REMARK  240  A    between atoms: _610  and  _611
REMARK  241  A    between atoms: _614  and  _616
REMARK  242  A    between atoms: _616  and  _617
REMARK  243  A    between atoms: _616  and  _619
REMARK  244  A    between atoms: _619  and  _620
REMARK  245  A    between atoms: _630  and  _632
REMARK  246  A    between atoms: _632  and  _633
REMARK  247  A    between atoms: _632  and  _635
REMARK  248  A    between atoms: _635  and  _636
REMARK  249  A    between atoms: _638  and  _640
REMARK  250  A    between atoms: _640  and  _641
REMARK  251  A    between atoms: _640  and  _643
REMARK  252  A    between atoms: _643  and  _644
REMARK  253  A    between atoms: _649  and  _651
REMARK  254  A    between atoms: _651  and  _652
REMARK  255  A    between atoms: _651  and  _654
REMARK  256  A    between atoms: _654  and  _655
REMARK  257  A    between atoms: _661  and  _663
REMARK  258  A    between atoms: _663  and  _664
REMARK  259  A    between atoms: _663  and  _666
REMARK  260  A    between atoms: _666  and  _667
REMARK  261  A    between atoms: _667  and  _668
REMARK  262  A    between atoms: _671  and  _673
REMARK  263  A    between atoms: _673  and  _674
REMARK  264  A    between atoms: _673  and  _676
REMARK  265  A    between atoms: _676  and  _677
REMARK  266  A    between atoms: _687  and  _689
REMARK  267  A    between atoms: _689  and  _690
REMARK  268  A    between atoms: _689  and  _692
REMARK  269  A    between atoms: _692  and  _693
REMARK  270  A    between atoms: _696  and  _698
REMARK  271  A    between atoms: _698  and  _699
REMARK  272  A    between atoms: _698  and  _701
REMARK  273  A    between atoms: _701  and  _702
REMARK  274  A    between atoms: _704  and  _706
REMARK  275  A    between atoms: _706  and  _707
REMARK  276  A    between atoms: _706  and  _709
REMARK  277  A    between atoms: _709  and  _710
REMARK  278  A    between atoms: _712  and  _714
REMARK  279  A    between atoms: _714  and  _715
REMARK  280  A    between atoms: _714  and  _717
REMARK  281  A    between atoms: _717  and  _718
REMARK                            x       y       z     vdW  Elec       q    Type
REMARK                         _______ _______ _______ _____ _____    ______ ____
ROOT
ATOM      1  C   HIS A   1       7.657  -6.603  32.049  0.00  0.00    +0.239 C 
ATOM      2  N   TYR A   2       7.616  -7.585  32.953  0.00  0.00    -0.298 N 
ATOM      3  H   TYR A   2       8.507  -7.840  33.424  0.00  0.00    +0.150 HD
ATOM      4  O   HIS A   1       6.713  -6.314  31.314  0.00  0.00    -0.274 OA
ENDROOT
BRANCH   1   5
ATOM      5  CA  HIS A   1       9.016  -5.890  31.904  0.00  0.00    +0.151 C 
BRANCH   5   6
ATOM      6  N   HIS A   1       9.948  -6.860  31.319  0.00  0.00    -0.238 NA
ATOM      7  H   HIS A   1       9.596  -7.539  30.614  0.00  0.00    +0.142 HD
ENDBRANCH   5   6
BRANCH   5   8
ATOM      8  CB  HIS A   1       8.939  -4.652  30.999  0.00  0.00    +0.074 C 
BRANCH   8   9
ATOM      9  CG  HIS A   1       8.550  -3.374  31.691  0.00  0.00    +0.082 A 
ATOM     10  CD2 HIS A   1       7.324  -3.186  32.303  0.00  0.00    +0.115 A 
ATOM     11  NE2 HIS A   1       7.258  -1.955  32.790  0.00  0.00    -0.221 NA
ATOM     12  CE1 HIS A   1       8.387  -1.331  32.493  0.00  0.00    +0.199 A 
ATOM     13  ND1 HIS A   1       9.209  -2.195  31.806  0.00  0.00    -0.227 NA
ENDBRANCH   8   9
ENDBRANCH   5   8
ENDBRANCH   1   5
BRANCH   2  14
ATOM     14  CA  TYR A   2       6.403  -8.339  33.337  0.00  0.00    +0.141 C 
BRANCH  14  15
ATOM     15  C   TYR A   2       5.942  -9.418  32.357  0.00  0.00    +0.227 C 
ATOM     16  O   TYR A   2       5.016 -10.184  32.663  0.00  0.00    -0.286 OA
ENDBRANCH  14  15
BRANCH  14  17
ATOM     17  CB  TYR A   2       5.197  -7.407  33.560  0.00  0.00    +0.054 C 
BRANCH  17  18
ATOM     18  CG  TYR A   2       5.319  -6.316  34.612  0.00  0.00    -0.020 A 
ATOM     19  CD2 TYR A   2       6.326  -6.329  35.597  0.00  0.00    -0.001 A 
ATOM     20  CE2 TYR A   2       6.394  -5.317  36.587  0.00  0.00    +0.036 A 
ATOM     21  CZ  TYR A   2       5.432  -4.304  36.576  0.00  0.00    +0.134 A 
ATOM     22  CE1 TYR A   2       4.424  -4.296  35.603  0.00  0.00    +0.036 A 
ATOM     23  CD1 TYR A   2       4.377  -5.293  34.645  0.00  0.00    -0.001 A 
BRANCH  21  24
ATOM     24  OH  TYR A   2       5.426  -3.301  37.510  0.00  0.00    -0.506 OA
ATOM     25  HH  TYR A   2       4.670  -2.688  37.329  0.00  0.00    +0.292 HD
ENDBRANCH  21  24
ENDBRANCH  17  18
ENDBRANCH  14  17
ENDBRANCH   2  14
TORSDOF 9
REMARK  Name = ../refined-set-2016/3f5k/3f5k_pocket.pdb
REMARK  281 active torsions:
REMARK  status: ('A' for Active; 'I' for Inactive)
REMARK    1  A    between atoms: _1  and  _3
REMARK    2  A    between atoms: _3  and  _4
REMARK    3  A    between atoms: _3  and  _6
REMARK    4  A    between atoms: _9  and  _11
REMARK    5  A    between atoms: _11  and  _12
REMARK    6  A    between atoms: _11  and  _14
REMARK    7  A    between atoms: _14  and  _15
REMARK    8  A    between atoms: _18  and  _20
REMARK    9  A    between atoms: _20  and  _21
REMARK   10  A    between atoms: _20  and  _23
REMARK   11  A    between atoms: _23  and  _24
REMARK   12  A    between atoms: _26  and  _28
REMARK   13  A    between atoms: _28  and  _29
REMARK   14  A    between atoms: _32  and  _34
REMARK   15  A    between atoms: _34  and  _35
REMARK   16  A    between atoms: _34  and  _37
REMARK   17  A    between atoms: _37  and  _38
REMARK   18  A    between atoms: _38  and  _39
REMARK   19  A    between atoms: _44  and  _46
REMARK   20  A    between atoms: _46  and  _47
REMARK   21  A    between atoms: _46  and  _49
REMARK   22  A    between atoms: _49  and  _50
REMARK   23  A    between atoms: _50  and  _51
REMARK   24  A    between atoms: _51  and  _52
REMARK   25  A    between atoms: _61  and  _63
REMARK   26  A    between atoms: _63  and  _64
REMARK   27  A    between atoms: _63  and  _66
REMARK   28  A    between atoms: _66  and  _67
REMARK   29  A    between atoms: _72  and  _74
REMARK   30  A    between atoms: _74  and  _75
REMARK   31  A    between atoms: _74  and  _77
REMARK   32  A    between atoms: _77  and  _78
REMARK   33  A    between atoms: _83  and  _85
REMARK   34  A    between atoms: _85  and  _86
REMARK   35  A    between atoms: _85  and  _88
REMARK   36  A    between atoms: _88  and  _89
REMARK   37  A    between atoms: _94  and  _95
REMARK   38  A    between atoms: _97  and  _99
REMARK   39  A    between atoms: _99  and  _100
REMARK   40  A    between atoms: _99  and  _102
REMARK   41  A    between atoms: _102  and  _103
REMARK   42  A    between atoms: _108  and  _110
REMARK   43  A    between atoms: _110  and  _111
REMARK   44  A    between atoms: _110  and  _113
REMARK   45  A    between atoms: _113  and  _114
REMARK   46  A    between atoms: _114  and  _115
REMARK   47  A    between atoms: _120  and  _122
REMARK   48  A    between atoms: _122  and  _123
REMARK   49  A    between atoms: _122  and  _125
REMARK   50  A    between atoms: _125  and  _126
REMARK   51  A    between atoms: _126  and  _127
REMARK   52  A    between atoms: _127  and  _128
REMARK   53  A    between atoms: _137  and  _139
REMARK   54  A    between atoms: _139  and  _140
REMARK   55  A    between atoms: _139  and  _142
REMARK   56  A    between atoms: _142  and  _143
REMARK   57  A    between atoms: _146  and  _148
REMARK   58  A    between atoms: _148  and  _149
REMARK   59  A    between atoms: _148  and  _151
REMARK   60  A    between atoms: _151  and  _152
REMARK   61  A    between atoms: _155  and  _157
REMARK   62  A    between atoms: _157  and  _158
REMARK   63  A    between atoms: _157  and  _160
REMARK   64  A    between atoms: _160  and  _161
REMARK   65  A    between atoms: _164  and  _166
REMARK   66  A    between atoms: _166  and  _167
REMARK   67  A    between atoms: _166  and  _169
REMARK   68  A    between atoms: _169  and  _170
REMARK   69  A    between atoms: _173  and  _175
REMARK   70  A    between atoms: _175  and  _176
REMARK   71  A    between atoms: _175  and  _178
REMARK   72  A    between atoms: _178  and  _179
REMARK   73  A    between atoms: _179  and  _180
REMARK   74  A    between atoms: _185  and  _187
REMARK   75  A    between atoms: _187  and  _188
REMARK   76  A    between atoms: _187  and  _190
REMARK   77  A    between atoms: _190  and  _191
REMARK   78  A    between atoms: _194  and  _196
REMARK   79  A    between atoms: _196  and  _197
REMARK   80  A    between atoms: _196  and  _199
REMARK   81  A    between atoms: _199  and  _200
REMARK   82  A    between atoms: _205  and  _207
REMARK   83  A    between atoms: _207  and  _208
REMARK   84  A    between atoms: _207  and  _210
REMARK   85  A    between atoms: _213  and  _215
REMARK   86  A    between atoms: _215  and  _216
REMARK   87  A    between atoms: _215  and  _218
REMARK   88  A    between atoms: _218  and  _219
REMARK   89  A    between atoms: _222  and  _224
REMARK   90  A    between atoms: _224  and  _225
REMARK   91  A    between atoms: _224  and  _227
REMARK   92  A    between atoms: _227  and  _228
REMARK   93  A    between atoms: _231  and  _233
REMARK   94  A    between atoms: _233  and  _234
REMARK   95  A    between atoms: _233  and  _236
REMARK   96  A    between atoms: _236  and  _237
REMARK   97  A    between atoms: _243  and  _245
REMARK   98  A    between atoms: _245  and  _246
REMARK   99  A    between atoms: _245  and  _248
REMARK  100  A    between atoms: _248  and  _249
REMARK  101  A    between atoms: _254  and  _256
REMARK  102  A    between atoms: _256  and  _257
REMARK  103  A    between atoms: _256  and  _259
REMARK  104  A    between atoms: _259  and  _260
REMARK  105  A    between atoms: _270  and  _272
REMARK  106  A    between atoms: _272  and  _273
REMARK  107  A    between atoms: _272  and  _275
REMARK  108  A    between atoms: _275  and  _276
REMARK  109  A    between atoms: _281  and  _282
REMARK  110  A    between atoms: _284  and  _286
REMARK  111  A    between atoms: _286  and  _287
REMARK  112  A    between atoms: _286  and  _289
REMARK  113  A    between atoms: _289  and  _290
REMARK  114  A    between atoms: _295  and  _297
REMARK  115  A    between atoms: _297  and  _298
REMARK  116  A    between atoms: _297  and  _300
REMARK  117  A    between atoms: _300  and  _301
REMARK  118  A    between atoms: _306  and  _308
REMARK  119  A    between atoms: _308  and  _309
REMARK  120  A    between atoms: _308  and  _311
REMARK  121  A    between atoms: _311  and  _312
REMARK  122  A    between atoms: _312  and  _313
REMARK  123  A    between atoms: _318  and  _320
REMARK  124  A    between atoms: _320  and  _321
REMARK  125  A    between atoms: _320  and  _323
REMARK  126  A    between atoms: _323  and  _324
REMARK  127  A    between atoms: _329  and  _330
REMARK  128  A    between atoms: _332  and  _334
REMARK  129  A    between atoms: _334  and  _335
REMARK  130  A    between atoms: _334  and  _337
REMARK  131  A    between atoms: _337  and  _338
REMARK  132  A    between atoms: _341  and  _343
REMARK  133  A    between atoms: _343  and  _344
REMARK  134  A    between atoms: _347  and  _349
REMARK  135  A    between atoms: _349  and  _350
REMARK  136  A    between atoms: _349  and  _352
REMARK  137  A    between atoms: _352  and  _353
REMARK  138  A    between atoms: _355  and  _357
REMARK  139  A    between atoms: _357  and  _358
REMARK  140  A    between atoms: _357  and  _360
REMARK  141  A    between atoms: _360  and  _361
REMARK  142  A    between atoms: _361  and  _362
REMARK  143  A    between atoms: _364  and  _366
REMARK  144  A    between atoms: _366  and  _367
REMARK  145  A    between atoms: _366  and  _369
REMARK  146  A    between atoms: _369  and  _370
REMARK  147  A    between atoms: _370  and  _371
REMARK  148  A    between atoms: _376  and  _378
REMARK  149  A    between atoms: _378  and  _379
REMARK  150  A    between atoms: _378  and  _381
REMARK  151  A    between atoms: _381  and  _382
REMARK  152  A    between atoms: _384  and  _386
REMARK  153  A    between atoms: _386  and  _387
REMARK  154  A    between atoms: _386  and  _389
REMARK  155  A    between atoms: _389  and  _390
REMARK  156  A    between atoms: _395  and  _396
REMARK  157  A    between atoms: _398  and  _400
REMARK  158  A    between atoms: _400  and  _401
REMARK  159  A    between atoms: _400  and  _403
REMARK  160  A    between atoms: _403  and  _404
REMARK  161  A    between atoms: _406  and  _408
REMARK  162  A    between atoms: _408  and  _409
REMARK  163  A    between atoms: _412  and  _414
REMARK  164  A    between atoms: _414  and  _415
REMARK  165  A    between atoms: _414  and  _417
REMARK  166  A    between atoms: _417  and  _418
REMARK  167  A    between atoms: _428  and  _430
REMARK  168  A    between atoms: _430  and  _431
REMARK  169  A    between atoms: _430  and  _433
REMARK  170  A    between atoms: _433  and  _434
REMARK  171  A    between atoms: _434  and  _435
REMARK  172  A    between atoms: _440  and  _442
REMARK  173  A    between atoms: _442  and  _443
REMARK  174  A    between atoms: _442  and  _445
REMARK  175  A    between atoms: _448  and  _450
REMARK  176  A    between atoms: _450  and  _451
REMARK  177  A    between atoms: _450  and  _453
REMARK  178  A    between atoms: _453  and  _454
REMARK  179  A    between atoms: _457  and  _459
REMARK  180  A    between atoms: _459  and  _460
REMARK  181  A    between atoms: _459  and  _462
REMARK  182  A    between atoms: _462  and  _463
REMARK  183  A    between atoms: _468  and  _469
REMARK  184  A    between atoms: _471  and  _473
REMARK  185  A    between atoms: _473  and  _474
REMARK  186  A    between atoms: _473  and  _476
REMARK  187  A    between atoms: _479  and  _481
REMARK  188  A    between atoms: _481  and  _482
REMARK  189  A    between atoms: _481  and  _484
REMARK  190  A    between atoms: _484  and  _485
REMARK  191  A    between atoms: _491  and  _493
REMARK  192  A    between atoms: _493  and  _494
REMARK  193  A    between atoms: _493  and  _496
REMARK  194  A    between atoms: _496  and  _497
REMARK  195  A    between atoms: _497  and  _498
REMARK  196  A    between atoms: _503  and  _505
REMARK  197  A    between atoms: _505  and  _506
REMARK  198  A    between atoms: _505  and  _508
REMARK  199  A    between atoms: _508  and  _509
REMARK  200  A    between atoms: _511  and  _513
REMARK  201  A    between atoms: _513  and  _514
REMARK  202  A    between atoms: _513  and  _516
REMARK  203  A    between atoms: _516  and  _517
REMARK  204  A    between atoms: _522  and  _524
REMARK  205  A    between atoms: _524  and  _525
REMARK  206  A    between atoms: _524  and  _527
REMARK  207  A    between atoms: _527  and  _528
REMARK  208  A    between atoms: _538  and  _540
REMARK  209  A    between atoms: _540  and  _541
REMARK  210  A    between atoms: _540  and  _543
REMARK  211  A    between atoms: _543  and  _544
REMARK  212  A    between atoms: _547  and  _549
REMARK  213  A    between atoms: _549  and  _550
REMARK  214  A    between atoms: _549  and  _552
REMARK  215  A    between atoms: _552  and  _553
REMARK  216  A    between atoms: _558  and  _559
REMARK  217  A    between atoms: _561  and  _563
REMARK  218  A    between atoms: _563  and  _564
REMARK  219  A    between atoms: _563  and  _566
REMARK  220  A    between atoms: _566  and  _567
REMARK  221  A    between atoms: _570  and  _572
REMARK  222  A    between atoms: _572  and  _573
REMARK  223  A    between atoms: _572  and  _575
REMARK  224  A    between atoms: _575  and  _576
REMARK  225  A    between atoms: _576  and  _577
REMARK  226  A    between atoms: _580  and  _582
REMARK  227  A    between atoms: _582  and  _583
REMARK  228  A    between atoms: _582  and  _585
REMARK  229  A    between atoms: _585  and  _586
REMARK  230  A    between atoms: _591  and  _593
REMARK  231  A    between atoms: _593  and  _594
REMARK  232  A    between atoms: _596  and  _598
REMARK  233  A    between atoms: _598  and  _599
REMARK  234  A    between atoms: _598  and  _601
REMARK  235  A    between atoms: _601  and  _602
REMARK  236  A    between atoms: _602  and  _603
REMARK  237  A    between atoms: _605  and  _607
REMARK  238  A    between atoms: _607  and  _608
REMARK  239  A    between atoms: _607  and  _610
REMARK  240  A    between atoms: _610  and  _611
REMARK  241  A    between atoms: _614  and  _616
REMARK  242  A    between atoms: _616  and  _617
REMARK  243  A    between atoms: _616  and  _619
REMARK  244  A    between atoms: _619  and  _620
REMARK  245  A    between atoms: _630  and  _632
REMARK  246  A    between atoms: _632  and  _633
REMARK  247  A    between atoms: _632  and  _635
REMARK  248  A    between atoms: _635  and  _636
REMARK  249  A    between atoms: _638  and  _640
REMARK  250  A    between atoms: _640  and  _641
REMARK  251  A    between atoms: _640  and  _643
REMARK  252  A    between atoms: _643  and  _644
REMARK  253  A    between atoms: _649  and  _651
REMARK  254  A    between atoms: _651  and  _652
REMARK  255  A    between atoms: _651  and  _654
REMARK  256  A    between atoms: _654  and  _655
REMARK  257  A    between atoms: _661  and  _663
REMARK  258  A    between atoms: _663  and  _664
REMARK  259  A    between atoms: _663  and  _666
REMARK  260  A    between atoms: _666  and  _667
REMARK  261  A    between atoms: _667  and  _668
REMARK  262  A    between atoms: _671  and  _673
REMARK  263  A    between atoms: _673  and  _674
REMARK  264  A    between atoms: _673  and  _676
REMARK  265  A    between atoms: _676  and  _677
REMARK  266  A    between atoms: _687  and  _689
REMARK  267  A    between atoms: _689  and  _690
REMARK  268  A    between atoms: _689  and  _692
REMARK  269  A    between atoms: _692  and  _693
REMARK  270  A    between atoms: _696  and  _698
REMARK  271  A    between atoms: _698  and  _699
REMARK  272  A    between atoms: _698  and  _701
REMARK  273  A    between atoms: _701  and  _702
REMARK  274  A    between atoms: _704  and  _706
REMARK  275  A    between atoms: _706  and  _707
REMARK  276  A    between atoms: _706  and  _709
REMARK  277  A    between atoms: _709  and  _710
REMARK  278  A    between atoms: _712  and  _714
REMARK  279  A    between atoms: _714  and  _715
REMARK  280  A    between atoms: _714  and  _717
REMARK  281  A    between atoms: _717  and  _718
REMARK                            x       y       z     vdW  Elec       q    Type
REMARK                         _______ _______ _______ _____ _____    ______ ____
ROOT
ATOM      1  C   ASN A   1      10.740  -4.305  37.135  0.00  0.00    +0.239 C 
ATOM      2  N   GLN A   2      11.026  -3.655  38.247  0.00  0.00    -0.298 N 
ATOM      3  H   GLN A   2      11.856  -3.029  38.255  0.00  0.00    +0.150 HD
ATOM      4  O   ASN A   1       9.842  -5.141  37.059  0.00  0.00    -0.274 OA
ENDROOT
BRANCH   1   5
ATOM      5  CA  ASN A   1      11.598  -3.963  35.919  0.00  0.00    +0.154 C 
BRANCH   5   6
ATOM      6  N   ASN A   1      12.349  -5.123  35.476  0.00  0.00    -0.238 NA
ATOM      7  H   ASN A   1      11.820  -5.921  35.069  0.00  0.00    +0.142 HD
ENDBRANCH   5   6
BRANCH   5   8
ATOM      8  CB  ASN A   1      10.666  -3.417  34.808  0.00  0.00    +0.111 C 
BRANCH   8   9
ATOM      9  CG  ASN A   1       9.929  -2.160  35.256  0.00  0.00    +0.221 C 
ATOM     10  ND2 ASN A   1       8.649  -2.291  35.606  0.00  0.00    -0.329 N 
ATOM     11 HD21 ASN A   1       8.104  -1.458  35.907  0.00  0.00    +0.145 HD
ATOM     12 HD22 ASN A   1       8.195  -3.226  35.578  0.00  0.00    +0.145 HD
ATOM     13  OD1 ASN A   1      10.508  -1.088  35.271  0.00  0.00    -0.275 OA
ENDBRANCH   8   9
ENDBRANCH   5   8
ENDBRANCH   1   5
BRANCH   2  14
ATOM     14  CA  GLN A   2      10.229  -3.773  39.474  0.00  0.00    +0.137 C 
BRANCH  14  15
ATOM     15  C   GLN A   2       9.883  -5.214  39.884  0.00  0.00    +0.227 C 
ATOM     16  O   GLN A   2       8.702  -5.556  39.953  0.00  0.00    -0.286 OA
ENDBRANCH  14  15
BRANCH  14  17
ATOM     17  CB  GLN A   2       8.923  -2.960  39.346  0.00  0.00    +0.037 C 
BRANCH  17  18
ATOM     18  CG  GLN A   2       9.145  -1.525  38.853  0.00  0.00    +0.087 C 
BRANCH  18  19
ATOM     19  CD  GLN A   2       7.907  -0.653  38.950  0.00  0.00    +0.219 C 
ATOM     20  OE1 GLN A   2       8.011   0.557  39.143  0.00  0.00    -0.275 OA
ATOM     21  NE2 GLN A   2       6.724  -1.257  38.790  0.00  0.00    -0.329 N 
ATOM     22 HE21 GLN A   2       5.847  -0.700  38.827  0.00  0.00    +0.145 HD
ATOM     23 HE22 GLN A   2       6.682  -2.284  38.629  0.00  0.00    +0.145 HD
ENDBRANCH  18  19
ENDBRANCH  17  18
ENDBRANCH  14  17
ENDBRANCH   2  14
TORSDOF 9
REMARK  Name = ../refined-set-2016/3f5k/3f5k_pocket.pdb
REMARK  281 active torsions:
REMARK  status: ('A' for Active; 'I' for Inactive)
REMARK    1  A    between atoms: _1  and  _3
REMARK    2  A    between atoms: _3  and  _4
REMARK    3  A    between atoms: _3  and  _6
REMARK    4  A    between atoms: _9  and  _11
REMARK    5  A    between atoms: _11  and  _12
REMARK    6  A    between atoms: _11  and  _14
REMARK    7  A    between atoms: _14  and  _15
REMARK    8  A    between atoms: _18  and  _20
REMARK    9  A    between atoms: _20  and  _21
REMARK   10  A    between atoms: _20  and  _23
REMARK   11  A    between atoms: _23  and  _24
REMARK   12  A    between atoms: _26  and  _28
REMARK   13  A    between atoms: _28  and  _29
REMARK   14  A    between atoms: _32  and  _34
REMARK   15  A    between atoms: _34  and  _35
REMARK   16  A    between atoms: _34  and  _37
REMARK   17  A    between atoms: _37  and  _38
REMARK   18  A    between atoms: _38  and  _39
REMARK   19  A    between atoms: _44  and  _46
REMARK   20  A    between atoms: _46  and  _47
REMARK   21  A    between atoms: _46  and  _49
REMARK   22  A    between atoms: _49  and  _50
REMARK   23  A    between atoms: _50  and  _51
REMARK   24  A    between atoms: _51  and  _52
REMARK   25  A    between atoms: _61  and  _63
REMARK   26  A    between atoms: _63  and  _64
REMARK   27  A    between atoms: _63  and  _66
REMARK   28  A    between atoms: _66  and  _67
REMARK   29  A    between atoms: _72  and  _74
REMARK   30  A    between atoms: _74  and  _75
REMARK   31  A    between atoms: _74  and  _77
REMARK   32  A    between atoms: _77  and  _78
REMARK   33  A    between atoms: _83  and  _85
REMARK   34  A    between atoms: _85  and  _86
REMARK   35  A    between atoms: _85  and  _88
REMARK   36  A    between atoms: _88  and  _89
REMARK   37  A    between atoms: _94  and  _95
REMARK   38  A    between atoms: _97  and  _99
REMARK   39  A    between atoms: _99  and  _100
REMARK   40  A    between atoms: _99  and  _102
REMARK   41  A    between atoms: _102  and  _103
REMARK   42  A    between atoms: _108  and  _110
REMARK   43  A    between atoms: _110  and  _111
REMARK   44  A    between atoms: _110  and  _113
REMARK   45  A    between atoms: _113  and  _114
REMARK   46  A    between atoms: _114  and  _115
REMARK   47  A    between atoms: _120  and  _122
REMARK   48  A    between atoms: _122  and  _123
REMARK   49  A    between atoms: _122  and  _125
REMARK   50  A    between atoms: _125  and  _126
REMARK   51  A    between atoms: _126  and  _127
REMARK   52  A    between atoms: _127  and  _128
REMARK   53  A    between atoms: _137  and  _139
REMARK   54  A    between atoms: _139  and  _140
REMARK   55  A    between atoms: _139  and  _142
REMARK   56  A    between atoms: _142  and  _143
REMARK   57  A    between atoms: _146  and  _148
REMARK   58  A    between atoms: _148  and  _149
REMARK   59  A    between atoms: _148  and  _151
REMARK   60  A    between atoms: _151  and  _152
REMARK   61  A    between atoms: _155  and  _157
REMARK   62  A    between atoms: _157  and  _158
REMARK   63  A    between atoms: _157  and  _160
REMARK   64  A    between atoms: _160  and  _161
REMARK   65  A    between atoms: _164  and  _166
REMARK   66  A    between atoms: _166  and  _167
REMARK   67  A    between atoms: _166  and  _169
REMARK   68  A    between atoms: _169  and  _170
REMARK   69  A    between atoms: _173  and  _175
REMARK   70  A    between atoms: _175  and  _176
REMARK   71  A    between atoms: _175  and  _178
REMARK   72  A    between atoms: _178  and  _179
REMARK   73  A    between atoms: _179  and  _180
REMARK   74  A    between atoms: _185  and  _187
REMARK   75  A    between atoms: _187  and  _188
REMARK   76  A    between atoms: _187  and  _190
REMARK   77  A    between atoms: _190  and  _191
REMARK   78  A    between atoms: _194  and  _196
REMARK   79  A    between atoms: _196  and  _197
REMARK   80  A    between atoms: _196  and  _199
REMARK   81  A    between atoms: _199  and  _200
REMARK   82  A    between atoms: _205  and  _207
REMARK   83  A    between atoms: _207  and  _208
REMARK   84  A    between atoms: _207  and  _210
REMARK   85  A    between atoms: _213  and  _215
REMARK   86  A    between atoms: _215  and  _216
REMARK   87  A    between atoms: _215  and  _218
REMARK   88  A    between atoms: _218  and  _219
REMARK   89  A    between atoms: _222  and  _224
REMARK   90  A    between atoms: _224  and  _225
REMARK   91  A    between atoms: _224  and  _227
REMARK   92  A    between atoms: _227  and  _228
REMARK   93  A    between atoms: _231  and  _233
REMARK   94  A    between atoms: _233  and  _234
REMARK   95  A    between atoms: _233  and  _236
REMARK   96  A    between atoms: _236  and  _237
REMARK   97  A    between atoms: _243  and  _245
REMARK   98  A    between atoms: _245  and  _246
REMARK   99  A    between atoms: _245  and  _248
REMARK  100  A    between atoms: _248  and  _249
REMARK  101  A    between atoms: _254  and  _256
REMARK  102  A    between atoms: _256  and  _257
REMARK  103  A    between atoms: _256  and  _259
REMARK  104  A    between atoms: _259  and  _260
REMARK  105  A    between atoms: _270  and  _272
REMARK  106  A    between atoms: _272  and  _273
REMARK  107  A    between atoms: _272  and  _275
REMARK  108  A    between atoms: _275  and  _276
REMARK  109  A    between atoms: _281  and  _282
REMARK  110  A    between atoms: _284  and  _286
REMARK  111  A    between atoms: _286  and  _287
REMARK  112  A    between atoms: _286  and  _289
REMARK  113  A    between atoms: _289  and  _290
REMARK  114  A    between atoms: _295  and  _297
REMARK  115  A    between atoms: _297  and  _298
REMARK  116  A    between atoms: _297  and  _300
REMARK  117  A    between atoms: _300  and  _301
REMARK  118  A    between atoms: _306  and  _308
REMARK  119  A    between atoms: _308  and  _309
REMARK  120  A    between atoms: _308  and  _311
REMARK  121  A    between atoms: _311  and  _312
REMARK  122  A    between atoms: _312  and  _313
REMARK  123  A    between atoms: _318  and  _320
REMARK  124  A    between atoms: _320  and  _321
REMARK  125  A    between atoms: _320  and  _323
REMARK  126  A    between atoms: _323  and  _324
REMARK  127  A    between atoms: _329  and  _330
REMARK  128  A    between atoms: _332  and  _334
REMARK  129  A    between atoms: _334  and  _335
REMARK  130  A    between atoms: _334  and  _337
REMARK  131  A    between atoms: _337  and  _338
REMARK  132  A    between atoms: _341  and  _343
REMARK  133  A    between atoms: _343  and  _344
REMARK  134  A    between atoms: _347  and  _349
REMARK  135  A    between atoms: _349  and  _350
REMARK  136  A    between atoms: _349  and  _352
REMARK  137  A    between atoms: _352  and  _353
REMARK  138  A    between atoms: _355  and  _357
REMARK  139  A    between atoms: _357  and  _358
REMARK  140  A    between atoms: _357  and  _360
REMARK  141  A    between atoms: _360  and  _361
REMARK  142  A    between atoms: _361  and  _362
REMARK  143  A    between atoms: _364  and  _366
REMARK  144  A    between atoms: _366  and  _367
REMARK  145  A    between atoms: _366  and  _369
REMARK  146  A    between atoms: _369  and  _370
REMARK  147  A    between atoms: _370  and  _371
REMARK  148  A    between atoms: _376  and  _378
REMARK  149  A    between atoms: _378  and  _379
REMARK  150  A    between atoms: _378  and  _381
REMARK  151  A    between atoms: _381  and  _382
REMARK  152  A    between atoms: _384  and  _386
REMARK  153  A    between atoms: _386  and  _387
REMARK  154  A    between atoms: _386  and  _389
REMARK  155  A    between atoms: _389  and  _390
REMARK  156  A    between atoms: _395  and  _396
REMARK  157  A    between atoms: _398  and  _400
REMARK  158  A    between atoms: _400  and  _401
REMARK  159  A    between atoms: _400  and  _403
REMARK  160  A    between atoms: _403  and  _404
REMARK  161  A    between atoms: _406  and  _408
REMARK  162  A    between atoms: _408  and  _409
REMARK  163  A    between atoms: _412  and  _414
REMARK  164  A    between atoms: _414  and  _415
REMARK  165  A    between atoms: _414  and  _417
REMARK  166  A    between atoms: _417  and  _418
REMARK  167  A    between atoms: _428  and  _430
REMARK  168  A    between atoms: _430  and  _431
REMARK  169  A    between atoms: _430  and  _433
REMARK  170  A    between atoms: _433  and  _434
REMARK  171  A    between atoms: _434  and  _435
REMARK  172  A    between atoms: _440  and  _442
REMARK  173  A    between atoms: _442  and  _443
REMARK  174  A    between atoms: _442  and  _445
REMARK  175  A    between atoms: _448  and  _450
REMARK  176  A    between atoms: _450  and  _451
REMARK  177  A    between atoms: _450  and  _453
REMARK  178  A    between atoms: _453  and  _454
REMARK  179  A    between atoms: _457  and  _459
REMARK  180  A    between atoms: _459  and  _460
REMARK  181  A    between atoms: _459  and  _462
REMARK  182  A    between atoms: _462  and  _463
REMARK  183  A    between atoms: _468  and  _469
REMARK  184  A    between atoms: _471  and  _473
REMARK  185  A    between atoms: _473  and  _474
REMARK  186  A    between atoms: _473  and  _476
REMARK  187  A    between atoms: _479  and  _481
REMARK  188  A    between atoms: _481  and  _482
REMARK  189  A    between atoms: _481  and  _484
REMARK  190  A    between atoms: _484  and  _485
REMARK  191  A    between atoms: _491  and  _493
REMARK  192  A    between atoms: _493  and  _494
REMARK  193  A    between atoms: _493  and  _496
REMARK  194  A    between atoms: _496  and  _497
REMARK  195  A    between atoms: _497  and  _498
REMARK  196  A    between atoms: _503  and  _505
REMARK  197  A    between atoms: _505  and  _506
REMARK  198  A    between atoms: _505  and  _508
REMARK  199  A    between atoms: _508  and  _509
REMARK  200  A    between atoms: _511  and  _513
REMARK  201  A    between atoms: _513  and  _514
REMARK  202  A    between atoms: _513  and  _516
REMARK  203  A    between atoms: _516  and  _517
REMARK  204  A    between atoms: _522  and  _524
REMARK  205  A    between atoms: _524  and  _525
REMARK  206  A    between atoms: _524  and  _527
REMARK  207  A    between atoms: _527  and  _528
REMARK  208  A    between atoms: _538  and  _540
REMARK  209  A    between atoms: _540  and  _541
REMARK  210  A    between atoms: _540  and  _543
REMARK  211  A    between atoms: _543  and  _544
REMARK  212  A    between atoms: _547  and  _549
REMARK  213  A    between atoms: _549  and  _550
REMARK  214  A    between atoms: _549  and  _552
REMARK  215  A    between atoms: _552  and  _553
REMARK  216  A    between atoms: _558  and  _559
REMARK  217  A    between atoms: _561  and  _563
REMARK  218  A    between atoms: _563  and  _564
REMARK  219  A    between atoms: _563  and  _566
REMARK  220  A    between atoms: _566  and  _567
REMARK  221  A    between atoms: _570  and  _572
REMARK  222  A    between atoms: _572  and  _573
REMARK  223  A    between atoms: _572  and  _575
REMARK  224  A    between atoms: _575  and  _576
REMARK  225  A    between atoms: _576  and  _577
REMARK  226  A    between atoms: _580  and  _582
REMARK  227  A    between atoms: _582  and  _583
REMARK  228  A    between atoms: _582  and  _585
REMARK  229  A    between atoms: _585  and  _586
REMARK  230  A    between atoms: _591  and  _593
REMARK  231  A    between atoms: _593  and  _594
REMARK  232  A    between atoms: _596  and  _598
REMARK  233  A    between atoms: _598  and  _599
REMARK  234  A    between atoms: _598  and  _601
REMARK  235  A    between atoms: _601  and  _602
REMARK  236  A    between atoms: _602  and  _603
REMARK  237  A    between atoms: _605  and  _607
REMARK  238  A    between atoms: _607  and  _608
REMARK  239  A    between atoms: _607  and  _610
REMARK  240  A    between atoms: _610  and  _611
REMARK  241  A    between atoms: _614  and  _616
REMARK  242  A    between atoms: _616  and  _617
REMARK  243  A    between atoms: _616  and  _619
REMARK  244  A    between atoms: _619  and  _620
REMARK  245  A    between atoms: _630  and  _632
REMARK  246  A    between atoms: _632  and  _633
REMARK  247  A    between atoms: _632  and  _635
REMARK  248  A    between atoms: _635  and  _636
REMARK  249  A    between atoms: _638  and  _640
REMARK  250  A    between atoms: _640  and  _641
REMARK  251  A    between atoms: _640  and  _643
REMARK  252  A    between atoms: _643  and  _644
REMARK  253  A    between atoms: _649  and  _651
REMARK  254  A    between atoms: _651  and  _652
REMARK  255  A    between atoms: _651  and  _654
REMARK  256  A    between atoms: _654  and  _655
REMARK  257  A    between atoms: _661  and  _663
REMARK  258  A    between atoms: _663  and  _664
REMARK  259  A    between atoms: _663  and  _666
REMARK  260  A    between atoms: _666  and  _667
REMARK  261  A    between atoms: _667  and  _668
REMARK  262  A    between atoms: _671  and  _673
REMARK  263  A    between atoms: _673  and  _674
REMARK  264  A    between atoms: _673  and  _676
REMARK  265  A    between atoms: _676  and  _677
REMARK  266  A    between atoms: _687  and  _689
REMARK  267  A    between atoms: _689  and  _690
REMARK  268  A    between atoms: _689  and  _692
REMARK  269  A    between atoms: _692  and  _693
REMARK  270  A    between atoms: _696  and  _698
REMARK  271  A    between atoms: _698  and  _699
REMARK  272  A    between atoms: _698  and  _701
REMARK  273  A    between atoms: _701  and  _702
REMARK  274  A    between atoms: _704  and  _706
REMARK  275  A    between atoms: _706  and  _707
REMARK  276  A    between atoms: _706  and  _709
REMARK  277  A    between atoms: _709  and  _710
REMARK  278  A    between atoms: _712  and  _714
REMARK  279  A    between atoms: _714  and  _715
REMARK  280  A    between atoms: _714  and  _717
REMARK  281  A    between atoms: _717  and  _718
REMARK                            x       y       z     vdW  Elec       q    Type
REMARK                         _______ _______ _______ _____ _____    ______ ____
ROOT
ATOM      1  CA  ARG A   1       8.957  -6.119  43.942  0.00  0.00    +0.145 C 
ENDROOT
BRANCH   1   2
ATOM      2  C   ARG A   1       7.465  -6.201  43.572  0.00  0.00    +0.238 C 
ATOM      3  O   ARG A   1       6.691  -6.819  44.284  0.00  0.00    -0.274 OA
ATOM      4  N   ILE A   2       7.085  -5.561  42.462  0.00  0.00    -0.298 N 
ATOM      5  H   ILE A   2       7.809  -5.100  41.874  0.00  0.00    +0.150 HD
BRANCH   4   6
ATOM      6  CA  ILE A   2       5.675  -5.487  42.044  0.00  0.00    +0.137 C 
BRANCH   6   7
ATOM      7  C   ILE A   2       5.245  -6.833  41.436  0.00  0.00    +0.227 C 
ATOM      8  O   ILE A   2       4.103  -7.283  41.642  0.00  0.00    -0.286 OA
ENDBRANCH   6   7
BRANCH   6   9
ATOM      9  CB  ILE A   2       5.433  -4.290  41.080  0.00  0.00    +0.026 C 
ATOM     10  CG2 ILE A   2       4.012  -4.327  40.462  0.00  0.00    +0.002 C 
BRANCH   9  11
ATOM     11  CG1 ILE A   2       5.760  -2.935  41.762  0.00  0.00    +0.002 C 
ATOM     12  CD1 ILE A   2       4.919  -2.600  43.008  0.00  0.00    +0.000 C 
ENDBRANCH   9  11
ENDBRANCH   6   9
ENDBRANCH   4   6
ENDBRANCH   1   2
BRANCH   1  13
ATOM     13  N   ARG A   1       9.824  -6.249  42.748  0.00  0.00    -0.238 NA
ATOM     14  H   ARG A   1      10.502  -5.495  42.517  0.00  0.00    +0.142 HD
ENDBRANCH   1  13
BRANCH   1  15
ATOM     15  CB  ARG A   1       9.232  -4.840  44.722  0.00  0.00    +0.030 C 
BRANCH  15  16
ATOM     16  CG  ARG A   1       8.648  -4.834  46.149  0.00  0.00    +0.045 C 
BRANCH  16  17
ATOM     17  CD  ARG A   1       8.625  -3.433  46.724  0.00  0.00    +0.174 C 
BRANCH  17  18
ATOM     18  NE  ARG A   1       7.439  -2.642  46.322  0.00  0.00    -0.265 N 
ATOM     19  CZ  ARG A   1       6.280  -2.622  46.989  0.00  0.00    +0.342 C 
ATOM     20  NH2 ARG A   1       6.121  -3.388  48.072  0.00  0.00    -0.292 N 
ATOM     21 HH21 ARG A   1       5.220  -3.373  48.592  0.00  0.00    +0.255 HD
ATOM     22 HH22 ARG A   1       6.898  -3.999  48.395  0.00  0.00    +0.255 HD
ATOM     23  NH1 ARG A   1       5.263  -1.859  46.566  0.00  0.00    -0.292 N 
ATOM     24 HH11 ARG A   1       4.366  -1.850  47.092  0.00  0.00    +0.255 HD
ATOM     25 HH12 ARG A   1       5.371  -1.275  45.712  0.00  0.00    +0.255 HD
ATOM     26  HE  ARG A   1       7.513  -2.062  45.462  0.00  0.00    +0.259 HD
ENDBRANCH  17  18
ENDBRANCH  16  17
ENDBRANCH  15  16
ENDBRANCH   1  15
TORSDOF 10
REMARK  Name = ../refined-set-2016/3f5k/3f5k_pocket.pdb
REMARK  281 active torsions:
REMARK  status: ('A' for Active; 'I' for Inactive)
REMARK    1  A    between atoms: _1  and  _3
REMARK    2  A    between atoms: _3  and  _4
REMARK    3  A    between atoms: _3  and  _6
REMARK    4  A    between atoms: _9  and  _11
REMARK    5  A    between atoms: _11  and  _12
REMARK    6  A    between atoms: _11  and  _14
REMARK    7  A    between atoms: _14  and  _15
REMARK    8  A    between atoms: _18  and  _20
REMARK    9  A    between atoms: _20  and  _21
REMARK   10  A    between atoms: _20  and  _23
REMARK   11  A    between atoms: _23  and  _24
REMARK   12  A    between atoms: _26  and  _28
REMARK   13  A    between atoms: _28  and  _29
REMARK   14  A    between atoms: _32  and  _34
REMARK   15  A    between atoms: _34  and  _35
REMARK   16  A    between atoms: _34  and  _37
REMARK   17  A    between atoms: _37  and  _38
REMARK   18  A    between atoms: _38  and  _39
REMARK   19  A    between atoms: _44  and  _46
REMARK   20  A    between atoms: _46  and  _47
REMARK   21  A    between atoms: _46  and  _49
REMARK   22  A    between atoms: _49  and  _50
REMARK   23  A    between atoms: _50  and  _51
REMARK   24  A    between atoms: _51  and  _52
REMARK   25  A    between atoms: _61  and  _63
REMARK   26  A    between atoms: _63  and  _64
REMARK   27  A    between atoms: _63  and  _66
REMARK   28  A    between atoms: _66  and  _67
REMARK   29  A    between atoms: _72  and  _74
REMARK   30  A    between atoms: _74  and  _75
REMARK   31  A    between atoms: _74  and  _77
REMARK   32  A    between atoms: _77  and  _78
REMARK   33  A    between atoms: _83  and  _85
REMARK   34  A    between atoms: _85  and  _86
REMARK   35  A    between atoms: _85  and  _88
REMARK   36  A    between atoms: _88  and  _89
REMARK   37  A    between atoms: _94  and  _95
REMARK   38  A    between atoms: _97  and  _99
REMARK   39  A    between atoms: _99  and  _100
REMARK   40  A    between atoms: _99  and  _102
REMARK   41  A    between atoms: _102  and  _103
REMARK   42  A    between atoms: _108  and  _110
REMARK   43  A    between atoms: _110  and  _111
REMARK   44  A    between atoms: _110  and  _113
REMARK   45  A    between atoms: _113  and  _114
REMARK   46  A    between atoms: _114  and  _115
REMARK   47  A    between atoms: _120  and  _122
REMARK   48  A    between atoms: _122  and  _123
REMARK   49  A    between atoms: _122  and  _125
REMARK   50  A    between atoms: _125  and  _126
REMARK   51  A    between atoms: _126  and  _127
REMARK   52  A    between atoms: _127  and  _128
REMARK   53  A    between atoms: _137  and  _139
REMARK   54  A    between atoms: _139  and  _140
REMARK   55  A    between atoms: _139  and  _142
REMARK   56  A    between atoms: _142  and  _143
REMARK   57  A    between atoms: _146  and  _148
REMARK   58  A    between atoms: _148  and  _149
REMARK   59  A    between atoms: _148  and  _151
REMARK   60  A    between atoms: _151  and  _152
REMARK   61  A    between atoms: _155  and  _157
REMARK   62  A    between atoms: _157  and  _158
REMARK   63  A    between atoms: _157  and  _160
REMARK   64  A    between atoms: _160  and  _161
REMARK   65  A    between atoms: _164  and  _166
REMARK   66  A    between atoms: _166  and  _167
REMARK   67  A    between atoms: _166  and  _169
REMARK   68  A    between atoms: _169  and  _170
REMARK   69  A    between atoms: _173  and  _175
REMARK   70  A    between atoms: _175  and  _176
REMARK   71  A    between atoms: _175  and  _178
REMARK   72  A    between atoms: _178  and  _179
REMARK   73  A    between atoms: _179  and  _180
REMARK   74  A    between atoms: _185  and  _187
REMARK   75  A    between atoms: _187  and  _188
REMARK   76  A    between atoms: _187  and  _190
REMARK   77  A    between atoms: _190  and  _191
REMARK   78  A    between atoms: _194  and  _196
REMARK   79  A    between atoms: _196  and  _197
REMARK   80  A    between atoms: _196  and  _199
REMARK   81  A    between atoms: _199  and  _200
REMARK   82  A    between atoms: _205  and  _207
REMARK   83  A    between atoms: _207  and  _208
REMARK   84  A    between atoms: _207  and  _210
REMARK   85  A    between atoms: _213  and  _215
REMARK   86  A    between atoms: _215  and  _216
REMARK   87  A    between atoms: _215  and  _218
REMARK   88  A    between atoms: _218  and  _219
REMARK   89  A    between atoms: _222  and  _224
REMARK   90  A    between atoms: _224  and  _225
REMARK   91  A    between atoms: _224  and  _227
REMARK   92  A    between atoms: _227  and  _228
REMARK   93  A    between atoms: _231  and  _233
REMARK   94  A    between atoms: _233  and  _234
REMARK   95  A    between atoms: _233  and  _236
REMARK   96  A    between atoms: _236  and  _237
REMARK   97  A    between atoms: _243  and  _245
REMARK   98  A    between atoms: _245  and  _246
REMARK   99  A    between atoms: _245  and  _248
REMARK  100  A    between atoms: _248  and  _249
REMARK  101  A    between atoms: _254  and  _256
REMARK  102  A    between atoms: _256  and  _257
REMARK  103  A    between atoms: _256  and  _259
REMARK  104  A    between atoms: _259  and  _260
REMARK  105  A    between atoms: _270  and  _272
REMARK  106  A    between atoms: _272  and  _273
REMARK  107  A    between atoms: _272  and  _275
REMARK  108  A    between atoms: _275  and  _276
REMARK  109  A    between atoms: _281  and  _282
REMARK  110  A    between atoms: _284  and  _286
REMARK  111  A    between atoms: _286  and  _287
REMARK  112  A    between atoms: _286  and  _289
REMARK  113  A    between atoms: _289  and  _290
REMARK  114  A    between atoms: _295  and  _297
REMARK  115  A    between atoms: _297  and  _298
REMARK  116  A    between atoms: _297  and  _300
REMARK  117  A    between atoms: _300  and  _301
REMARK  118  A    between atoms: _306  and  _308
REMARK  119  A    between atoms: _308  and  _309
REMARK  120  A    between atoms: _308  and  _311
REMARK  121  A    between atoms: _311  and  _312
REMARK  122  A    between atoms: _312  and  _313
REMARK  123  A    between atoms: _318  and  _320
REMARK  124  A    between atoms: _320  and  _321
REMARK  125  A    between atoms: _320  and  _323
REMARK  126  A    between atoms: _323  and  _324
REMARK  127  A    between atoms: _329  and  _330
REMARK  128  A    between atoms: _332  and  _334
REMARK  129  A    between atoms: _334  and  _335
REMARK  130  A    between atoms: _334  and  _337
REMARK  131  A    between atoms: _337  and  _338
REMARK  132  A    between atoms: _341  and  _343
REMARK  133  A    between atoms: _343  and  _344
REMARK  134  A    between atoms: _347  and  _349
REMARK  135  A    between atoms: _349  and  _350
REMARK  136  A    between atoms: _349  and  _352
REMARK  137  A    between atoms: _352  and  _353
REMARK  138  A    between atoms: _355  and  _357
REMARK  139  A    between atoms: _357  and  _358
REMARK  140  A    between atoms: _357  and  _360
REMARK  141  A    between atoms: _360  and  _361
REMARK  142  A    between atoms: _361  and  _362
REMARK  143  A    between atoms: _364  and  _366
REMARK  144  A    between atoms: _366  and  _367
REMARK  145  A    between atoms: _366  and  _369
REMARK  146  A    between atoms: _369  and  _370
REMARK  147  A    between atoms: _370  and  _371
REMARK  148  A    between atoms: _376  and  _378
REMARK  149  A    between atoms: _378  and  _379
REMARK  150  A    between atoms: _378  and  _381
REMARK  151  A    between atoms: _381  and  _382
REMARK  152  A    between atoms: _384  and  _386
REMARK  153  A    between atoms: _386  and  _387
REMARK  154  A    between atoms: _386  and  _389
REMARK  155  A    between atoms: _389  and  _390
REMARK  156  A    between atoms: _395  and  _396
REMARK  157  A    between atoms: _398  and  _400
REMARK  158  A    between atoms: _400  and  _401
REMARK  159  A    between atoms: _400  and  _403
REMARK  160  A    between atoms: _403  and  _404
REMARK  161  A    between atoms: _406  and  _408
REMARK  162  A    between atoms: _408  and  _409
REMARK  163  A    between atoms: _412  and  _414
REMARK  164  A    between atoms: _414  and  _415
REMARK  165  A    between atoms: _414  and  _417
REMARK  166  A    between atoms: _417  and  _418
REMARK  167  A    between atoms: _428  and  _430
REMARK  168  A    between atoms: _430  and  _431
REMARK  169  A    between atoms: _430  and  _433
REMARK  170  A    between atoms: _433  and  _434
REMARK  171  A    between atoms: _434  and  _435
REMARK  172  A    between atoms: _440  and  _442
REMARK  173  A    between atoms: _442  and  _443
REMARK  174  A    between atoms: _442  and  _445
REMARK  175  A    between atoms: _448  and  _450
REMARK  176  A    between atoms: _450  and  _451
REMARK  177  A    between atoms: _450  and  _453
REMARK  178  A    between atoms: _453  and  _454
REMARK  179  A    between atoms: _457  and  _459
REMARK  180  A    between atoms: _459  and  _460
REMARK  181  A    between atoms: _459  and  _462
REMARK  182  A    between atoms: _462  and  _463
REMARK  183  A    between atoms: _468  and  _469
REMARK  184  A    between atoms: _471  and  _473
REMARK  185  A    between atoms: _473  and  _474
REMARK  186  A    between atoms: _473  and  _476
REMARK  187  A    between atoms: _479  and  _481
REMARK  188  A    between atoms: _481  and  _482
REMARK  189  A    between atoms: _481  and  _484
REMARK  190  A    between atoms: _484  and  _485
REMARK  191  A    between atoms: _491  and  _493
REMARK  192  A    between atoms: _493  and  _494
REMARK  193  A    between atoms: _493  and  _496
REMARK  194  A    between atoms: _496  and  _497
REMARK  195  A    between atoms: _497  and  _498
REMARK  196  A    between atoms: _503  and  _505
REMARK  197  A    between atoms: _505  and  _506
REMARK  198  A    between atoms: _505  and  _508
REMARK  199  A    between atoms: _508  and  _509
REMARK  200  A    between atoms: _511  and  _513
REMARK  201  A    between atoms: _513  and  _514
REMARK  202  A    between atoms: _513  and  _516
REMARK  203  A    between atoms: _516  and  _517
REMARK  204  A    between atoms: _522  and  _524
REMARK  205  A    between atoms: _524  and  _525
REMARK  206  A    between atoms: _524  and  _527
REMARK  207  A    between atoms: _527  and  _528
REMARK  208  A    between atoms: _538  and  _540
REMARK  209  A    between atoms: _540  and  _541
REMARK  210  A    between atoms: _540  and  _543
REMARK  211  A    between atoms: _543  and  _544
REMARK  212  A    between atoms: _547  and  _549
REMARK  213  A    between atoms: _549  and  _550
REMARK  214  A    between atoms: _549  and  _552
REMARK  215  A    between atoms: _552  and  _553
REMARK  216  A    between atoms: _558  and  _559
REMARK  217  A    between atoms: _561  and  _563
REMARK  218  A    between atoms: _563  and  _564
REMARK  219  A    between atoms: _563  and  _566
REMARK  220  A    between atoms: _566  and  _567
REMARK  221  A    between atoms: _570  and  _572
REMARK  222  A    between atoms: _572  and  _573
REMARK  223  A    between atoms: _572  and  _575
REMARK  224  A    between atoms: _575  and  _576
REMARK  225  A    between atoms: _576  and  _577
REMARK  226  A    between atoms: _580  and  _582
REMARK  227  A    between atoms: _582  and  _583
REMARK  228  A    between atoms: _582  and  _585
REMARK  229  A    between atoms: _585  and  _586
REMARK  230  A    between atoms: _591  and  _593
REMARK  231  A    between atoms: _593  and  _594
REMARK  232  A    between atoms: _596  and  _598
REMARK  233  A    between atoms: _598  and  _599
REMARK  234  A    between atoms: _598  and  _601
REMARK  235  A    between atoms: _601  and  _602
REMARK  236  A    between atoms: _602  and  _603
REMARK  237  A    between atoms: _605  and  _607
REMARK  238  A    between atoms: _607  and  _608
REMARK  239  A    between atoms: _607  and  _610
REMARK  240  A    between atoms: _610  and  _611
REMARK  241  A    between atoms: _614  and  _616
REMARK  242  A    between atoms: _616  and  _617
REMARK  243  A    between atoms: _616  and  _619
REMARK  244  A    between atoms: _619  and  _620
REMARK  245  A    between atoms: _630  and  _632
REMARK  246  A    between atoms: _632  and  _633
REMARK  247  A    between atoms: _632  and  _635
REMARK  248  A    between atoms: _635  and  _636
REMARK  249  A    between atoms: _638  and  _640
REMARK  250  A    between atoms: _640  and  _641
REMARK  251  A    between atoms: _640  and  _643
REMARK  252  A    between atoms: _643  and  _644
REMARK  253  A    between atoms: _649  and  _651
REMARK  254  A    between atoms: _651  and  _652
REMARK  255  A    between atoms: _651  and  _654
REMARK  256  A    between atoms: _654  and  _655
REMARK  257  A    between atoms: _661  and  _663
REMARK  258  A    between atoms: _663  and  _664
REMARK  259  A    between atoms: _663  and  _666
REMARK  260  A    between atoms: _666  and  _667
REMARK  261  A    between atoms: _667  and  _668
REMARK  262  A    between atoms: _671  and  _673
REMARK  263  A    between atoms: _673  and  _674
REMARK  264  A    between atoms: _673  and  _676
REMARK  265  A    between atoms: _676  and  _677
REMARK  266  A    between atoms: _687  and  _689
REMARK  267  A    between atoms: _689  and  _690
REMARK  268  A    between atoms: _689  and  _692
REMARK  269  A    between atoms: _692  and  _693
REMARK  270  A    between atoms: _696  and  _698
REMARK  271  A    between atoms: _698  and  _699
REMARK  272  A    between atoms: _698  and  _701
REMARK  273  A    between atoms: _701  and  _702
REMARK  274  A    between atoms: _704  and  _706
REMARK  275  A    between atoms: _706  and  _707
REMARK  276  A    between atoms: _706  and  _709
REMARK  277  A    between atoms: _709  and  _710
REMARK  278  A    between atoms: _712  and  _714
REMARK  279  A    between atoms: _714  and  _715
REMARK  280  A    between atoms: _714  and  _717
REMARK  281  A    between atoms: _717  and  _718
REMARK                            x       y       z     vdW  Elec       q    Type
REMARK                         _______ _______ _______ _____ _____    ______ ____
ROOT
ATOM      1  C   LEU A   1       2.240  -8.591  44.691  0.00  0.00    +0.238 C 
ATOM      2  O   LEU A   1       1.337  -9.236  45.252  0.00  0.00    -0.274 OA
ATOM      3  N   LEU A   2       2.144  -8.143  43.444  0.00  0.00    -0.298 N 
ATOM      4  H   LEU A   2       2.966  -7.698  42.987  0.00  0.00    +0.150 HD
ENDROOT
BRANCH   1   5
ATOM      5  CA  LEU A   1       3.567  -8.264  45.412  0.00  0.00    +0.145 C 
BRANCH   5   6
ATOM      6  N   LEU A   1       4.744  -8.789  44.678  0.00  0.00    -0.238 NA
ATOM      7  H   LEU A   1       5.432  -8.110  44.294  0.00  0.00    +0.142 HD
ENDBRANCH   5   6
BRANCH   5   8
ATOM      8  CB  LEU A   1       3.689  -6.745  45.613  0.00  0.00    +0.026 C 
BRANCH   8   9
ATOM      9  CG  LEU A   1       2.504  -6.079  46.324  0.00  0.00    +0.002 C 
ATOM     10  CD2 LEU A   1       2.464  -6.507  47.806  0.00  0.00    +0.000 C 
ATOM     11  CD1 LEU A   1       2.571  -4.556  46.196  0.00  0.00    +0.000 C 
ENDBRANCH   8   9
ENDBRANCH   5   8
ENDBRANCH   1   5
BRANCH   3  12
ATOM     12  CA  LEU A   2       0.876  -8.275  42.708  0.00  0.00    +0.137 C 
BRANCH  12  13
ATOM     13  C   LEU A   2       0.638  -9.667  42.104  0.00  0.00    +0.227 C 
ATOM     14  O   LEU A   2      -0.515 -10.131  42.060  0.00  0.00    -0.286 OA
ENDBRANCH  12  13
BRANCH  12  15
ATOM     15  CB  LEU A   2       0.735  -7.154  41.669  0.00  0.00    +0.028 C 
BRANCH  15  16
ATOM     16  CG  LEU A   2       0.800  -5.717  42.238  0.00  0.00    +0.002 C 
ATOM     17  CD2 LEU A   2      -0.128  -5.503  43.442  0.00  0.00    +0.000 C 
ATOM     18  CD1 LEU A   2       0.509  -4.667  41.127  0.00  0.00    +0.000 C 
ENDBRANCH  15  16
ENDBRANCH  12  15
ENDBRANCH   3  12
TORSDOF 8
REMARK  Name = ../refined-set-2016/3f5k/3f5k_pocket.pdb
REMARK  281 active torsions:
REMARK  status: ('A' for Active; 'I' for Inactive)
REMARK    1  A    between atoms: _1  and  _3
REMARK    2  A    between atoms: _3  and  _4
REMARK    3  A    between atoms: _3  and  _6
REMARK    4  A    between atoms: _9  and  _11
REMARK    5  A    between atoms: _11  and  _12
REMARK    6  A    between atoms: _11  and  _14
REMARK    7  A    between atoms: _14  and  _15
REMARK    8  A    between atoms: _18  and  _20
REMARK    9  A    between atoms: _20  and  _21
REMARK   10  A    between atoms: _20  and  _23
REMARK   11  A    between atoms: _23  and  _24
REMARK   12  A    between atoms: _26  and  _28
REMARK   13  A    between atoms: _28  and  _29
REMARK   14  A    between atoms: _32  and  _34
REMARK   15  A    between atoms: _34  and  _35
REMARK   16  A    between atoms: _34  and  _37
REMARK   17  A    between atoms: _37  and  _38
REMARK   18  A    between atoms: _38  and  _39
REMARK   19  A    between atoms: _44  and  _46
REMARK   20  A    between atoms: _46  and  _47
REMARK   21  A    between atoms: _46  and  _49
REMARK   22  A    between atoms: _49  and  _50
REMARK   23  A    between atoms: _50  and  _51
REMARK   24  A    between atoms: _51  and  _52
REMARK   25  A    between atoms: _61  and  _63
REMARK   26  A    between atoms: _63  and  _64
REMARK   27  A    between atoms: _63  and  _66
REMARK   28  A    between atoms: _66  and  _67
REMARK   29  A    between atoms: _72  and  _74
REMARK   30  A    between atoms: _74  and  _75
REMARK   31  A    between atoms: _74  and  _77
REMARK   32  A    between atoms: _77  and  _78
REMARK   33  A    between atoms: _83  and  _85
REMARK   34  A    between atoms: _85  and  _86
REMARK   35  A    between atoms: _85  and  _88
REMARK   36  A    between atoms: _88  and  _89
REMARK   37  A    between atoms: _94  and  _95
REMARK   38  A    between atoms: _97  and  _99
REMARK   39  A    between atoms: _99  and  _100
REMARK   40  A    between atoms: _99  and  _102
REMARK   41  A    between atoms: _102  and  _103
REMARK   42  A    between atoms: _108  and  _110
REMARK   43  A    between atoms: _110  and  _111
REMARK   44  A    between atoms: _110  and  _113
REMARK   45  A    between atoms: _113  and  _114
REMARK   46  A    between atoms: _114  and  _115
REMARK   47  A    between atoms: _120  and  _122
REMARK   48  A    between atoms: _122  and  _123
REMARK   49  A    between atoms: _122  and  _125
REMARK   50  A    between atoms: _125  and  _126
REMARK   51  A    between atoms: _126  and  _127
REMARK   52  A    between atoms: _127  and  _128
REMARK   53  A    between atoms: _137  and  _139
REMARK   54  A    between atoms: _139  and  _140
REMARK   55  A    between atoms: _139  and  _142
REMARK   56  A    between atoms: _142  and  _143
REMARK   57  A    between atoms: _146  and  _148
REMARK   58  A    between atoms: _148  and  _149
REMARK   59  A    between atoms: _148  and  _151
REMARK   60  A    between atoms: _151  and  _152
REMARK   61  A    between atoms: _155  and  _157
REMARK   62  A    between atoms: _157  and  _158
REMARK   63  A    between atoms: _157  and  _160
REMARK   64  A    between atoms: _160  and  _161
REMARK   65  A    between atoms: _164  and  _166
REMARK   66  A    between atoms: _166  and  _167
REMARK   67  A    between atoms: _166  and  _169
REMARK   68  A    between atoms: _169  and  _170
REMARK   69  A    between atoms: _173  and  _175
REMARK   70  A    between atoms: _175  and  _176
REMARK   71  A    between atoms: _175  and  _178
REMARK   72  A    between atoms: _178  and  _179
REMARK   73  A    between atoms: _179  and  _180
REMARK   74  A    between atoms: _185  and  _187
REMARK   75  A    between atoms: _187  and  _188
REMARK   76  A    between atoms: _187  and  _190
REMARK   77  A    between atoms: _190  and  _191
REMARK   78  A    between atoms: _194  and  _196
REMARK   79  A    between atoms: _196  and  _197
REMARK   80  A    between atoms: _196  and  _199
REMARK   81  A    between atoms: _199  and  _200
REMARK   82  A    between atoms: _205  and  _207
REMARK   83  A    between atoms: _207  and  _208
REMARK   84  A    between atoms: _207  and  _210
REMARK   85  A    between atoms: _213  and  _215
REMARK   86  A    between atoms: _215  and  _216
REMARK   87  A    between atoms: _215  and  _218
REMARK   88  A    between atoms: _218  and  _219
REMARK   89  A    between atoms: _222  and  _224
REMARK   90  A    between atoms: _224  and  _225
REMARK   91  A    between atoms: _224  and  _227
REMARK   92  A    between atoms: _227  and  _228
REMARK   93  A    between atoms: _231  and  _233
REMARK   94  A    between atoms: _233  and  _234
REMARK   95  A    between atoms: _233  and  _236
REMARK   96  A    between atoms: _236  and  _237
REMARK   97  A    between atoms: _243  and  _245
REMARK   98  A    between atoms: _245  and  _246
REMARK   99  A    between atoms: _245  and  _248
REMARK  100  A    between atoms: _248  and  _249
REMARK  101  A    between atoms: _254  and  _256
REMARK  102  A    between atoms: _256  and  _257
REMARK  103  A    between atoms: _256  and  _259
REMARK  104  A    between atoms: _259  and  _260
REMARK  105  A    between atoms: _270  and  _272
REMARK  106  A    between atoms: _272  and  _273
REMARK  107  A    between atoms: _272  and  _275
REMARK  108  A    between atoms: _275  and  _276
REMARK  109  A    between atoms: _281  and  _282
REMARK  110  A    between atoms: _284  and  _286
REMARK  111  A    between atoms: _286  and  _287
REMARK  112  A    between atoms: _286  and  _289
REMARK  113  A    between atoms: _289  and  _290
REMARK  114  A    between atoms: _295  and  _297
REMARK  115  A    between atoms: _297  and  _298
REMARK  116  A    between atoms: _297  and  _300
REMARK  117  A    between atoms: _300  and  _301
REMARK  118  A    between atoms: _306  and  _308
REMARK  119  A    between atoms: _308  and  _309
REMARK  120  A    between atoms: _308  and  _311
REMARK  121  A    between atoms: _311  and  _312
REMARK  122  A    between atoms: _312  and  _313
REMARK  123  A    between atoms: _318  and  _320
REMARK  124  A    between atoms: _320  and  _321
REMARK  125  A    between atoms: _320  and  _323
REMARK  126  A    between atoms: _323  and  _324
REMARK  127  A    between atoms: _329  and  _330
REMARK  128  A    between atoms: _332  and  _334
REMARK  129  A    between atoms: _334  and  _335
REMARK  130  A    between atoms: _334  and  _337
REMARK  131  A    between atoms: _337  and  _338
REMARK  132  A    between atoms: _341  and  _343
REMARK  133  A    between atoms: _343  and  _344
REMARK  134  A    between atoms: _347  and  _349
REMARK  135  A    between atoms: _349  and  _350
REMARK  136  A    between atoms: _349  and  _352
REMARK  137  A    between atoms: _352  and  _353
REMARK  138  A    between atoms: _355  and  _357
REMARK  139  A    between atoms: _357  and  _358
REMARK  140  A    between atoms: _357  and  _360
REMARK  141  A    between atoms: _360  and  _361
REMARK  142  A    between atoms: _361  and  _362
REMARK  143  A    between atoms: _364  and  _366
REMARK  144  A    between atoms: _366  and  _367
REMARK  145  A    between atoms: _366  and  _369
REMARK  146  A    between atoms: _369  and  _370
REMARK  147  A    between atoms: _370  and  _371
REMARK  148  A    between atoms: _376  and  _378
REMARK  149  A    between atoms: _378  and  _379
REMARK  150  A    between atoms: _378  and  _381
REMARK  151  A    between atoms: _381  and  _382
REMARK  152  A    between atoms: _384  and  _386
REMARK  153  A    between atoms: _386  and  _387
REMARK  154  A    between atoms: _386  and  _389
REMARK  155  A    between atoms: _389  and  _390
REMARK  156  A    between atoms: _395  and  _396
REMARK  157  A    between atoms: _398  and  _400
REMARK  158  A    between atoms: _400  and  _401
REMARK  159  A    between atoms: _400  and  _403
REMARK  160  A    between atoms: _403  and  _404
REMARK  161  A    between atoms: _406  and  _408
REMARK  162  A    between atoms: _408  and  _409
REMARK  163  A    between atoms: _412  and  _414
REMARK  164  A    between atoms: _414  and  _415
REMARK  165  A    between atoms: _414  and  _417
REMARK  166  A    between atoms: _417  and  _418
REMARK  167  A    between atoms: _428  and  _430
REMARK  168  A    between atoms: _430  and  _431
REMARK  169  A    between atoms: _430  and  _433
REMARK  170  A    between atoms: _433  and  _434
REMARK  171  A    between atoms: _434  and  _435
REMARK  172  A    between atoms: _440  and  _442
REMARK  173  A    between atoms: _442  and  _443
REMARK  174  A    between atoms: _442  and  _445
REMARK  175  A    between atoms: _448  and  _450
REMARK  176  A    between atoms: _450  and  _451
REMARK  177  A    between atoms: _450  and  _453
REMARK  178  A    between atoms: _453  and  _454
REMARK  179  A    between atoms: _457  and  _459
REMARK  180  A    between atoms: _459  and  _460
REMARK  181  A    between atoms: _459  and  _462
REMARK  182  A    between atoms: _462  and  _463
REMARK  183  A    between atoms: _468  and  _469
REMARK  184  A    between atoms: _471  and  _473
REMARK  185  A    between atoms: _473  and  _474
REMARK  186  A    between atoms: _473  and  _476
REMARK  187  A    between atoms: _479  and  _481
REMARK  188  A    between atoms: _481  and  _482
REMARK  189  A    between atoms: _481  and  _484
REMARK  190  A    between atoms: _484  and  _485
REMARK  191  A    between atoms: _491  and  _493
REMARK  192  A    between atoms: _493  and  _494
REMARK  193  A    between atoms: _493  and  _496
REMARK  194  A    between atoms: _496  and  _497
REMARK  195  A    between atoms: _497  and  _498
REMARK  196  A    between atoms: _503  and  _505
REMARK  197  A    between atoms: _505  and  _506
REMARK  198  A    between atoms: _505  and  _508
REMARK  199  A    between atoms: _508  and  _509
REMARK  200  A    between atoms: _511  and  _513
REMARK  201  A    between atoms: _513  and  _514
REMARK  202  A    between atoms: _513  and  _516
REMARK  203  A    between atoms: _516  and  _517
REMARK  204  A    between atoms: _522  and  _524
REMARK  205  A    between atoms: _524  and  _525
REMARK  206  A    between atoms: _524  and  _527
REMARK  207  A    between atoms: _527  and  _528
REMARK  208  A    between atoms: _538  and  _540
REMARK  209  A    between atoms: _540  and  _541
REMARK  210  A    between atoms: _540  and  _543
REMARK  211  A    between atoms: _543  and  _544
REMARK  212  A    between atoms: _547  and  _549
REMARK  213  A    between atoms: _549  and  _550
REMARK  214  A    between atoms: _549  and  _552
REMARK  215  A    between atoms: _552  and  _553
REMARK  216  A    between atoms: _558  and  _559
REMARK  217  A    between atoms: _561  and  _563
REMARK  218  A    between atoms: _563  and  _564
REMARK  219  A    between atoms: _563  and  _566
REMARK  220  A    between atoms: _566  and  _567
REMARK  221  A    between atoms: _570  and  _572
REMARK  222  A    between atoms: _572  and  _573
REMARK  223  A    between atoms: _572  and  _575
REMARK  224  A    between atoms: _575  and  _576
REMARK  225  A    between atoms: _576  and  _577
REMARK  226  A    between atoms: _580  and  _582
REMARK  227  A    between atoms: _582  and  _583
REMARK  228  A    between atoms: _582  and  _585
REMARK  229  A    between atoms: _585  and  _586
REMARK  230  A    between atoms: _591  and  _593
REMARK  231  A    between atoms: _593  and  _594
REMARK  232  A    between atoms: _596  and  _598
REMARK  233  A    between atoms: _598  and  _599
REMARK  234  A    between atoms: _598  and  _601
REMARK  235  A    between atoms: _601  and  _602
REMARK  236  A    between atoms: _602  and  _603
REMARK  237  A    between atoms: _605  and  _607
REMARK  238  A    between atoms: _607  and  _608
REMARK  239  A    between atoms: _607  and  _610
REMARK  240  A    between atoms: _610  and  _611
REMARK  241  A    between atoms: _614  and  _616
REMARK  242  A    between atoms: _616  and  _617
REMARK  243  A    between atoms: _616  and  _619
REMARK  244  A    between atoms: _619  and  _620
REMARK  245  A    between atoms: _630  and  _632
REMARK  246  A    between atoms: _632  and  _633
REMARK  247  A    between atoms: _632  and  _635
REMARK  248  A    between atoms: _635  and  _636
REMARK  249  A    between atoms: _638  and  _640
REMARK  250  A    between atoms: _640  and  _641
REMARK  251  A    between atoms: _640  and  _643
REMARK  252  A    between atoms: _643  and  _644
REMARK  253  A    between atoms: _649  and  _651
REMARK  254  A    between atoms: _651  and  _652
REMARK  255  A    between atoms: _651  and  _654
REMARK  256  A    between atoms: _654  and  _655
REMARK  257  A    between atoms: _661  and  _663
REMARK  258  A    between atoms: _663  and  _664
REMARK  259  A    between atoms: _663  and  _666
REMARK  260  A    between atoms: _666  and  _667
REMARK  261  A    between atoms: _667  and  _668
REMARK  262  A    between atoms: _671  and  _673
REMARK  263  A    between atoms: _673  and  _674
REMARK  264  A    between atoms: _673  and  _676
REMARK  265  A    between atoms: _676  and  _677
REMARK  266  A    between atoms: _687  and  _689
REMARK  267  A    between atoms: _689  and  _690
REMARK  268  A    between atoms: _689  and  _692
REMARK  269  A    between atoms: _692  and  _693
REMARK  270  A    between atoms: _696  and  _698
REMARK  271  A    between atoms: _698  and  _699
REMARK  272  A    between atoms: _698  and  _701
REMARK  273  A    between atoms: _701  and  _702
REMARK  274  A    between atoms: _704  and  _706
REMARK  275  A    between atoms: _706  and  _707
REMARK  276  A    between atoms: _706  and  _709
REMARK  277  A    between atoms: _709  and  _710
REMARK  278  A    between atoms: _712  and  _714
REMARK  279  A    between atoms: _714  and  _715
REMARK  280  A    between atoms: _714  and  _717
REMARK  281  A    between atoms: _717  and  _718
REMARK                            x       y       z     vdW  Elec       q    Type
REMARK                         _______ _______ _______ _____ _____    ______ ____
ROOT
ATOM      1  C   ASP A   1      -0.498 -11.480  47.294  0.00  0.00    +0.239 C 
ATOM      2  O   ASP A   1      -1.341 -12.191  47.838  0.00  0.00    -0.274 OA
ATOM      3  N   GLN A   2      -0.827 -10.430  46.555  0.00  0.00    -0.298 N 
ATOM      4  H   GLN A   2      -0.078  -9.885  46.082  0.00  0.00    +0.150 HD
ENDROOT
BRANCH   1   5
ATOM      5  CA  ASP A   1       1.002 -11.805  47.420  0.00  0.00    +0.156 C 
BRANCH   5   6
ATOM      6  N   ASP A   1       1.509 -12.186  46.093  0.00  0.00    -0.238 NA
ATOM      7  H   ASP A   1       1.707 -11.439  45.397  0.00  0.00    +0.142 HD
ENDBRANCH   5   6
BRANCH   5   8
ATOM      8  CB  ASP A   1       1.806 -10.633  48.021  0.00  0.00    +0.140 C 
BRANCH   8   9
ATOM      9  CG  ASP A   1       1.279 -10.185  49.409  0.00  0.00    +0.367 C 
ATOM     10  OD2 ASP A   1       1.996  -9.467  50.145  0.00  0.00    -0.246 OA
ATOM     11  OD1 ASP A   1       0.139 -10.531  49.777  0.00  0.00    -0.246 OA
ENDBRANCH   8   9
ENDBRANCH   5   8
ENDBRANCH   1   5
BRANCH   3  12
ATOM     12  CA  GLN A   2      -2.223 -10.021  46.390  0.00  0.00    +0.137 C 
BRANCH  12  13
ATOM     13  C   GLN A   2      -2.926 -10.835  45.283  0.00  0.00    +0.227 C 
ATOM     14  O   GLN A   2      -4.162 -10.959  45.281  0.00  0.00    -0.286 OA
ENDBRANCH  12  13
BRANCH  12  15
ATOM     15  CB  GLN A   2      -2.293  -8.535  46.027  0.00  0.00    +0.037 C 
BRANCH  15  16
ATOM     16  CG  GLN A   2      -1.816  -7.601  47.115  0.00  0.00    +0.087 C 
BRANCH  16  17
ATOM     17  CD  GLN A   2      -1.982  -6.129  46.724  0.00  0.00    +0.219 C 
ATOM     18  NE2 GLN A   2      -1.356  -5.248  47.488  0.00  0.00    -0.329 N 
ATOM     19 HE21 GLN A   2      -0.795  -5.571  48.302  0.00  0.00    +0.145 HD
ATOM     20 HE22 GLN A   2      -1.426  -4.232  47.275  0.00  0.00    +0.145 HD
ATOM     21  OE1 GLN A   2      -2.667  -5.791  45.738  0.00  0.00    -0.275 OA
ENDBRANCH  16  17
ENDBRANCH  15  16
ENDBRANCH  12  15
ENDBRANCH   3  12
TORSDOF 9
REMARK  Name = ../refined-set-2016/3f5k/3f5k_pocket.pdb
REMARK  281 active torsions:
REMARK  status: ('A' for Active; 'I' for Inactive)
REMARK    1  A    between atoms: _1  and  _3
REMARK    2  A    between atoms: _3  and  _4
REMARK    3  A    between atoms: _3  and  _6
REMARK    4  A    between atoms: _9  and  _11
REMARK    5  A    between atoms: _11  and  _12
REMARK    6  A    between atoms: _11  and  _14
REMARK    7  A    between atoms: _14  and  _15
REMARK    8  A    between atoms: _18  and  _20
REMARK    9  A    between atoms: _20  and  _21
REMARK   10  A    between atoms: _20  and  _23
REMARK   11  A    between atoms: _23  and  _24
REMARK   12  A    between atoms: _26  and  _28
REMARK   13  A    between atoms: _28  and  _29
REMARK   14  A    between atoms: _32  and  _34
REMARK   15  A    between atoms: _34  and  _35
REMARK   16  A    between atoms: _34  and  _37
REMARK   17  A    between atoms: _37  and  _38
REMARK   18  A    between atoms: _38  and  _39
REMARK   19  A    between atoms: _44  and  _46
REMARK   20  A    between atoms: _46  and  _47
REMARK   21  A    between atoms: _46  and  _49
REMARK   22  A    between atoms: _49  and  _50
REMARK   23  A    between atoms: _50  and  _51
REMARK   24  A    between atoms: _51  and  _52
REMARK   25  A    between atoms: _61  and  _63
REMARK   26  A    between atoms: _63  and  _64
REMARK   27  A    between atoms: _63  and  _66
REMARK   28  A    between atoms: _66  and  _67
REMARK   29  A    between atoms: _72  and  _74
REMARK   30  A    between atoms: _74  and  _75
REMARK   31  A    between atoms: _74  and  _77
REMARK   32  A    between atoms: _77  and  _78
REMARK   33  A    between atoms: _83  and  _85
REMARK   34  A    between atoms: _85  and  _86
REMARK   35  A    between atoms: _85  and  _88
REMARK   36  A    between atoms: _88  and  _89
REMARK   37  A    between atoms: _94  and  _95
REMARK   38  A    between atoms: _97  and  _99
REMARK   39  A    between atoms: _99  and  _100
REMARK   40  A    between atoms: _99  and  _102
REMARK   41  A    between atoms: _102  and  _103
REMARK   42  A    between atoms: _108  and  _110
REMARK   43  A    between atoms: _110  and  _111
REMARK   44  A    between atoms: _110  and  _113
REMARK   45  A    between atoms: _113  and  _114
REMARK   46  A    between atoms: _114  and  _115
REMARK   47  A    between atoms: _120  and  _122
REMARK   48  A    between atoms: _122  and  _123
REMARK   49  A    between atoms: _122  and  _125
REMARK   50  A    between atoms: _125  and  _126
REMARK   51  A    between atoms: _126  and  _127
REMARK   52  A    between atoms: _127  and  _128
REMARK   53  A    between atoms: _137  and  _139
REMARK   54  A    between atoms: _139  and  _140
REMARK   55  A    between atoms: _139  and  _142
REMARK   56  A    between atoms: _142  and  _143
REMARK   57  A    between atoms: _146  and  _148
REMARK   58  A    between atoms: _148  and  _149
REMARK   59  A    between atoms: _148  and  _151
REMARK   60  A    between atoms: _151  and  _152
REMARK   61  A    between atoms: _155  and  _157
REMARK   62  A    between atoms: _157  and  _158
REMARK   63  A    between atoms: _157  and  _160
REMARK   64  A    between atoms: _160  and  _161
REMARK   65  A    between atoms: _164  and  _166
REMARK   66  A    between atoms: _166  and  _167
REMARK   67  A    between atoms: _166  and  _169
REMARK   68  A    between atoms: _169  and  _170
REMARK   69  A    between atoms: _173  and  _175
REMARK   70  A    between atoms: _175  and  _176
REMARK   71  A    between atoms: _175  and  _178
REMARK   72  A    between atoms: _178  and  _179
REMARK   73  A    between atoms: _179  and  _180
REMARK   74  A    between atoms: _185  and  _187
REMARK   75  A    between atoms: _187  and  _188
REMARK   76  A    between atoms: _187  and  _190
REMARK   77  A    between atoms: _190  and  _191
REMARK   78  A    between atoms: _194  and  _196
REMARK   79  A    between atoms: _196  and  _197
REMARK   80  A    between atoms: _196  and  _199
REMARK   81  A    between atoms: _199  and  _200
REMARK   82  A    between atoms: _205  and  _207
REMARK   83  A    between atoms: _207  and  _208
REMARK   84  A    between atoms: _207  and  _210
REMARK   85  A    between atoms: _213  and  _215
REMARK   86  A    between atoms: _215  and  _216
REMARK   87  A    between atoms: _215  and  _218
REMARK   88  A    between atoms: _218  and  _219
REMARK   89  A    between atoms: _222  and  _224
REMARK   90  A    between atoms: _224  and  _225
REMARK   91  A    between atoms: _224  and  _227
REMARK   92  A    between atoms: _227  and  _228
REMARK   93  A    between atoms: _231  and  _233
REMARK   94  A    between atoms: _233  and  _234
REMARK   95  A    between atoms: _233  and  _236
REMARK   96  A    between atoms: _236  and  _237
REMARK   97  A    between atoms: _243  and  _245
REMARK   98  A    between atoms: _245  and  _246
REMARK   99  A    between atoms: _245  and  _248
REMARK  100  A    between atoms: _248  and  _249
REMARK  101  A    between atoms: _254  and  _256
REMARK  102  A    between atoms: _256  and  _257
REMARK  103  A    between atoms: _256  and  _259
REMARK  104  A    between atoms: _259  and  _260
REMARK  105  A    between atoms: _270  and  _272
REMARK  106  A    between atoms: _272  and  _273
REMARK  107  A    between atoms: _272  and  _275
REMARK  108  A    between atoms: _275  and  _276
REMARK  109  A    between atoms: _281  and  _282
REMARK  110  A    between atoms: _284  and  _286
REMARK  111  A    between atoms: _286  and  _287
REMARK  112  A    between atoms: _286  and  _289
REMARK  113  A    between atoms: _289  and  _290
REMARK  114  A    between atoms: _295  and  _297
REMARK  115  A    between atoms: _297  and  _298
REMARK  116  A    between atoms: _297  and  _300
REMARK  117  A    between atoms: _300  and  _301
REMARK  118  A    between atoms: _306  and  _308
REMARK  119  A    between atoms: _308  and  _309
REMARK  120  A    between atoms: _308  and  _311
REMARK  121  A    between atoms: _311  and  _312
REMARK  122  A    between atoms: _312  and  _313
REMARK  123  A    between atoms: _318  and  _320
REMARK  124  A    between atoms: _320  and  _321
REMARK  125  A    between atoms: _320  and  _323
REMARK  126  A    between atoms: _323  and  _324
REMARK  127  A    between atoms: _329  and  _330
REMARK  128  A    between atoms: _332  and  _334
REMARK  129  A    between atoms: _334  and  _335
REMARK  130  A    between atoms: _334  and  _337
REMARK  131  A    between atoms: _337  and  _338
REMARK  132  A    between atoms: _341  and  _343
REMARK  133  A    between atoms: _343  and  _344
REMARK  134  A    between atoms: _347  and  _349
REMARK  135  A    between atoms: _349  and  _350
REMARK  136  A    between atoms: _349  and  _352
REMARK  137  A    between atoms: _352  and  _353
REMARK  138  A    between atoms: _355  and  _357
REMARK  139  A    between atoms: _357  and  _358
REMARK  140  A    between atoms: _357  and  _360
REMARK  141  A    between atoms: _360  and  _361
REMARK  142  A    between atoms: _361  and  _362
REMARK  143  A    between atoms: _364  and  _366
REMARK  144  A    between atoms: _366  and  _367
REMARK  145  A    between atoms: _366  and  _369
REMARK  146  A    between atoms: _369  and  _370
REMARK  147  A    between atoms: _370  and  _371
REMARK  148  A    between atoms: _376  and  _378
REMARK  149  A    between atoms: _378  and  _379
REMARK  150  A    between atoms: _378  and  _381
REMARK  151  A    between atoms: _381  and  _382
REMARK  152  A    between atoms: _384  and  _386
REMARK  153  A    between atoms: _386  and  _387
REMARK  154  A    between atoms: _386  and  _389
REMARK  155  A    between atoms: _389  and  _390
REMARK  156  A    between atoms: _395  and  _396
REMARK  157  A    between atoms: _398  and  _400
REMARK  158  A    between atoms: _400  and  _401
REMARK  159  A    between atoms: _400  and  _403
REMARK  160  A    between atoms: _403  and  _404
REMARK  161  A    between atoms: _406  and  _408
REMARK  162  A    between atoms: _408  and  _409
REMARK  163  A    between atoms: _412  and  _414
REMARK  164  A    between atoms: _414  and  _415
REMARK  165  A    between atoms: _414  and  _417
REMARK  166  A    between atoms: _417  and  _418
REMARK  167  A    between atoms: _428  and  _430
REMARK  168  A    between atoms: _430  and  _431
REMARK  169  A    between atoms: _430  and  _433
REMARK  170  A    between atoms: _433  and  _434
REMARK  171  A    between atoms: _434  and  _435
REMARK  172  A    between atoms: _440  and  _442
REMARK  173  A    between atoms: _442  and  _443
REMARK  174  A    between atoms: _442  and  _445
REMARK  175  A    between atoms: _448  and  _450
REMARK  176  A    between atoms: _450  and  _451
REMARK  177  A    between atoms: _450  and  _453
REMARK  178  A    between atoms: _453  and  _454
REMARK  179  A    between atoms: _457  and  _459
REMARK  180  A    between atoms: _459  and  _460
REMARK  181  A    between atoms: _459  and  _462
REMARK  182  A    between atoms: _462  and  _463
REMARK  183  A    between atoms: _468  and  _469
REMARK  184  A    between atoms: _471  and  _473
REMARK  185  A    between atoms: _473  and  _474
REMARK  186  A    between atoms: _473  and  _476
REMARK  187  A    between atoms: _479  and  _481
REMARK  188  A    between atoms: _481  and  _482
REMARK  189  A    between atoms: _481  and  _484
REMARK  190  A    between atoms: _484  and  _485
REMARK  191  A    between atoms: _491  and  _493
REMARK  192  A    between atoms: _493  and  _494
REMARK  193  A    between atoms: _493  and  _496
REMARK  194  A    between atoms: _496  and  _497
REMARK  195  A    between atoms: _497  and  _498
REMARK  196  A    between atoms: _503  and  _505
REMARK  197  A    between atoms: _505  and  _506
REMARK  198  A    between atoms: _505  and  _508
REMARK  199  A    between atoms: _508  and  _509
REMARK  200  A    between atoms: _511  and  _513
REMARK  201  A    between atoms: _513  and  _514
REMARK  202  A    between atoms: _513  and  _516
REMARK  203  A    between atoms: _516  and  _517
REMARK  204  A    between atoms: _522  and  _524
REMARK  205  A    between atoms: _524  and  _525
REMARK  206  A    between atoms: _524  and  _527
REMARK  207  A    between atoms: _527  and  _528
REMARK  208  A    between atoms: _538  and  _540
REMARK  209  A    between atoms: _540  and  _541
REMARK  210  A    between atoms: _540  and  _543
REMARK  211  A    between atoms: _543  and  _544
REMARK  212  A    between atoms: _547  and  _549
REMARK  213  A    between atoms: _549  and  _550
REMARK  214  A    between atoms: _549  and  _552
REMARK  215  A    between atoms: _552  and  _553
REMARK  216  A    between atoms: _558  and  _559
REMARK  217  A    between atoms: _561  and  _563
REMARK  218  A    between atoms: _563  and  _564
REMARK  219  A    between atoms: _563  and  _566
REMARK  220  A    between atoms: _566  and  _567
REMARK  221  A    between atoms: _570  and  _572
REMARK  222  A    between atoms: _572  and  _573
REMARK  223  A    between atoms: _572  and  _575
REMARK  224  A    between atoms: _575  and  _576
REMARK  225  A    between atoms: _576  and  _577
REMARK  226  A    between atoms: _580  and  _582
REMARK  227  A    between atoms: _582  and  _583
REMARK  228  A    between atoms: _582  and  _585
REMARK  229  A    between atoms: _585  and  _586
REMARK  230  A    between atoms: _591  and  _593
REMARK  231  A    between atoms: _593  and  _594
REMARK  232  A    between atoms: _596  and  _598
REMARK  233  A    between atoms: _598  and  _599
REMARK  234  A    between atoms: _598  and  _601
REMARK  235  A    between atoms: _601  and  _602
REMARK  236  A    between atoms: _602  and  _603
REMARK  237  A    between atoms: _605  and  _607
REMARK  238  A    between atoms: _607  and  _608
REMARK  239  A    between atoms: _607  and  _610
REMARK  240  A    between atoms: _610  and  _611
REMARK  241  A    between atoms: _614  and  _616
REMARK  242  A    between atoms: _616  and  _617
REMARK  243  A    between atoms: _616  and  _619
REMARK  244  A    between atoms: _619  and  _620
REMARK  245  A    between atoms: _630  and  _632
REMARK  246  A    between atoms: _632  and  _633
REMARK  247  A    between atoms: _632  and  _635
REMARK  248  A    between atoms: _635  and  _636
REMARK  249  A    between atoms: _638  and  _640
REMARK  250  A    between atoms: _640  and  _641
REMARK  251  A    between atoms: _640  and  _643
REMARK  252  A    between atoms: _643  and  _644
REMARK  253  A    between atoms: _649  and  _651
REMARK  254  A    between atoms: _651  and  _652
REMARK  255  A    between atoms: _651  and  _654
REMARK  256  A    between atoms: _654  and  _655
REMARK  257  A    between atoms: _661  and  _663
REMARK  258  A    between atoms: _663  and  _664
REMARK  259  A    between atoms: _663  and  _666
REMARK  260  A    between atoms: _666  and  _667
REMARK  261  A    between atoms: _667  and  _668
REMARK  262  A    between atoms: _671  and  _673
REMARK  263  A    between atoms: _673  and  _674
REMARK  264  A    between atoms: _673  and  _676
REMARK  265  A    between atoms: _676  and  _677
REMARK  266  A    between atoms: _687  and  _689
REMARK  267  A    between atoms: _689  and  _690
REMARK  268  A    between atoms: _689  and  _692
REMARK  269  A    between atoms: _692  and  _693
REMARK  270  A    between atoms: _696  and  _698
REMARK  271  A    between atoms: _698  and  _699
REMARK  272  A    between atoms: _698  and  _701
REMARK  273  A    between atoms: _701  and  _702
REMARK  274  A    between atoms: _704  and  _706
REMARK  275  A    between atoms: _706  and  _707
REMARK  276  A    between atoms: _706  and  _709
REMARK  277  A    between atoms: _709  and  _710
REMARK  278  A    between atoms: _712  and  _714
REMARK  279  A    between atoms: _714  and  _715
REMARK  280  A    between atoms: _714  and  _717
REMARK  281  A    between atoms: _717  and  _718
REMARK                            x       y       z     vdW  Elec       q    Type
REMARK                         _______ _______ _______ _____ _____    ______ ____
ROOT
ATOM      1  C   THR A   1      -3.346  -8.978  39.777  0.00  0.00    +0.241 C 
ATOM      2  N   ASN A   2      -2.113  -9.462  39.626  0.00  0.00    -0.298 N 
ATOM      3  H   ASN A   2      -1.619  -9.846  40.457  0.00  0.00    +0.150 HD
ATOM      4  O   THR A   1      -3.921  -8.298  38.910  0.00  0.00    -0.274 OA
ENDROOT
BRANCH   1   5
ATOM      5  CA  THR A   1      -4.018  -9.223  41.134  0.00  0.00    +0.172 C 
BRANCH   5   6
ATOM      6  N   THR A   1      -3.229 -10.064  42.032  0.00  0.00    -0.236 NA
ATOM      7  H   THR A   1      -2.386  -9.668  42.495  0.00  0.00    +0.142 HD
ENDBRANCH   5   6
BRANCH   5   8
ATOM      8  CB  THR A   1      -4.301  -7.848  41.759  0.00  0.00    +0.135 C 
ATOM      9  CG2 THR A   1      -5.284  -7.971  42.971  0.00  0.00    +0.034 C 
BRANCH   8  10
ATOM     10  OG1 THR A   1      -3.054  -7.237  42.136  0.00  0.00    -0.383 OA
ATOM     11  HG1 THR A   1      -3.231  -6.350  42.539  0.00  0.00    +0.210 HD
ENDBRANCH   8  10
ENDBRANCH   5   8
ENDBRANCH   1   5
BRANCH   2  12
ATOM     12  CA  ASN A   2      -1.425  -9.471  38.320  0.00  0.00    +0.146 C 
BRANCH  12  13
ATOM     13  C   ASN A   2      -1.067 -10.908  38.025  0.00  0.00    +0.227 C 
ATOM     14  O   ASN A   2      -0.939 -11.698  38.963  0.00  0.00    -0.286 OA
ENDBRANCH  12  13
BRANCH  12  15
ATOM     15  CB  ASN A   2      -0.095  -8.686  38.372  0.00  0.00    +0.112 C 
BRANCH  15  16
ATOM     16  CG  ASN A   2      -0.271  -7.192  38.203  0.00  0.00    +0.222 C 
ATOM     17  OD1 ASN A   2      -1.372  -6.628  38.323  0.00  0.00    -0.275 OA
ATOM     18  ND2 ASN A   2       0.833  -6.534  37.944  0.00  0.00    -0.329 N 
ATOM     19 HD21 ASN A   2       1.734  -7.046  37.852  0.00  0.00    +0.145 HD
ATOM     20 HD22 ASN A   2       0.808  -5.500  37.831  0.00  0.00    +0.145 HD
ENDBRANCH  15  16
ENDBRANCH  12  15
ENDBRANCH   2  12
TORSDOF 8
REMARK  Name = ../refined-set-2016/3f5k/3f5k_pocket.pdb
REMARK  281 active torsions:
REMARK  status: ('A' for Active; 'I' for Inactive)
REMARK    1  A    between atoms: _1  and  _3
REMARK    2  A    between atoms: _3  and  _4
REMARK    3  A    between atoms: _3  and  _6
REMARK    4  A    between atoms: _9  and  _11
REMARK    5  A    between atoms: _11  and  _12
REMARK    6  A    between atoms: _11  and  _14
REMARK    7  A    between atoms: _14  and  _15
REMARK    8  A    between atoms: _18  and  _20
REMARK    9  A    between atoms: _20  and  _21
REMARK   10  A    between atoms: _20  and  _23
REMARK   11  A    between atoms: _23  and  _24
REMARK   12  A    between atoms: _26  and  _28
REMARK   13  A    between atoms: _28  and  _29
REMARK   14  A    between atoms: _32  and  _34
REMARK   15  A    between atoms: _34  and  _35
REMARK   16  A    between atoms: _34  and  _37
REMARK   17  A    between atoms: _37  and  _38
REMARK   18  A    between atoms: _38  and  _39
REMARK   19  A    between atoms: _44  and  _46
REMARK   20  A    between atoms: _46  and  _47
REMARK   21  A    between atoms: _46  and  _49
REMARK   22  A    between atoms: _49  and  _50
REMARK   23  A    between atoms: _50  and  _51
REMARK   24  A    between atoms: _51  and  _52
REMARK   25  A    between atoms: _61  and  _63
REMARK   26  A    between atoms: _63  and  _64
REMARK   27  A    between atoms: _63  and  _66
REMARK   28  A    between atoms: _66  and  _67
REMARK   29  A    between atoms: _72  and  _74
REMARK   30  A    between atoms: _74  and  _75
REMARK   31  A    between atoms: _74  and  _77
REMARK   32  A    between atoms: _77  and  _78
REMARK   33  A    between atoms: _83  and  _85
REMARK   34  A    between atoms: _85  and  _86
REMARK   35  A    between atoms: _85  and  _88
REMARK   36  A    between atoms: _88  and  _89
REMARK   37  A    between atoms: _94  and  _95
REMARK   38  A    between atoms: _97  and  _99
REMARK   39  A    between atoms: _99  and  _100
REMARK   40  A    between atoms: _99  and  _102
REMARK   41  A    between atoms: _102  and  _103
REMARK   42  A    between atoms: _108  and  _110
REMARK   43  A    between atoms: _110  and  _111
REMARK   44  A    between atoms: _110  and  _113
REMARK   45  A    between atoms: _113  and  _114
REMARK   46  A    between atoms: _114  and  _115
REMARK   47  A    between atoms: _120  and  _122
REMARK   48  A    between atoms: _122  and  _123
REMARK   49  A    between atoms: _122  and  _125
REMARK   50  A    between atoms: _125  and  _126
REMARK   51  A    between atoms: _126  and  _127
REMARK   52  A    between atoms: _127  and  _128
REMARK   53  A    between atoms: _137  and  _139
REMARK   54  A    between atoms: _139  and  _140
REMARK   55  A    between atoms: _139  and  _142
REMARK   56  A    between atoms: _142  and  _143
REMARK   57  A    between atoms: _146  and  _148
REMARK   58  A    between atoms: _148  and  _149
REMARK   59  A    between atoms: _148  and  _151
REMARK   60  A    between atoms: _151  and  _152
REMARK   61  A    between atoms: _155  and  _157
REMARK   62  A    between atoms: _157  and  _158
REMARK   63  A    between atoms: _157  and  _160
REMARK   64  A    between atoms: _160  and  _161
REMARK   65  A    between atoms: _164  and  _166
REMARK   66  A    between atoms: _166  and  _167
REMARK   67  A    between atoms: _166  and  _169
REMARK   68  A    between atoms: _169  and  _170
REMARK   69  A    between atoms: _173  and  _175
REMARK   70  A    between atoms: _175  and  _176
REMARK   71  A    between atoms: _175  and  _178
REMARK   72  A    between atoms: _178  and  _179
REMARK   73  A    between atoms: _179  and  _180
REMARK   74  A    between atoms: _185  and  _187
REMARK   75  A    between atoms: _187  and  _188
REMARK   76  A    between atoms: _187  and  _190
REMARK   77  A    between atoms: _190  and  _191
REMARK   78  A    between atoms: _194  and  _196
REMARK   79  A    between atoms: _196  and  _197
REMARK   80  A    between atoms: _196  and  _199
REMARK   81  A    between atoms: _199  and  _200
REMARK   82  A    between atoms: _205  and  _207
REMARK   83  A    between atoms: _207  and  _208
REMARK   84  A    between atoms: _207  and  _210
REMARK   85  A    between atoms: _213  and  _215
REMARK   86  A    between atoms: _215  and  _216
REMARK   87  A    between atoms: _215  and  _218
REMARK   88  A    between atoms: _218  and  _219
REMARK   89  A    between atoms: _222  and  _224
REMARK   90  A    between atoms: _224  and  _225
REMARK   91  A    between atoms: _224  and  _227
REMARK   92  A    between atoms: _227  and  _228
REMARK   93  A    between atoms: _231  and  _233
REMARK   94  A    between atoms: _233  and  _234
REMARK   95  A    between atoms: _233  and  _236
REMARK   96  A    between atoms: _236  and  _237
REMARK   97  A    between atoms: _243  and  _245
REMARK   98  A    between atoms: _245  and  _246
REMARK   99  A    between atoms: _245  and  _248
REMARK  100  A    between atoms: _248  and  _249
REMARK  101  A    between atoms: _254  and  _256
REMARK  102  A    between atoms: _256  and  _257
REMARK  103  A    between atoms: _256  and  _259
REMARK  104  A    between atoms: _259  and  _260
REMARK  105  A    between atoms: _270  and  _272
REMARK  106  A    between atoms: _272  and  _273
REMARK  107  A    between atoms: _272  and  _275
REMARK  108  A    between atoms: _275  and  _276
REMARK  109  A    between atoms: _281  and  _282
REMARK  110  A    between atoms: _284  and  _286
REMARK  111  A    between atoms: _286  and  _287
REMARK  112  A    between atoms: _286  and  _289
REMARK  113  A    between atoms: _289  and  _290
REMARK  114  A    between atoms: _295  and  _297
REMARK  115  A    between atoms: _297  and  _298
REMARK  116  A    between atoms: _297  and  _300
REMARK  117  A    between atoms: _300  and  _301
REMARK  118  A    between atoms: _306  and  _308
REMARK  119  A    between atoms: _308  and  _309
REMARK  120  A    between atoms: _308  and  _311
REMARK  121  A    between atoms: _311  and  _312
REMARK  122  A    between atoms: _312  and  _313
REMARK  123  A    between atoms: _318  and  _320
REMARK  124  A    between atoms: _320  and  _321
REMARK  125  A    between atoms: _320  and  _323
REMARK  126  A    between atoms: _323  and  _324
REMARK  127  A    between atoms: _329  and  _330
REMARK  128  A    between atoms: _332  and  _334
REMARK  129  A    between atoms: _334  and  _335
REMARK  130  A    between atoms: _334  and  _337
REMARK  131  A    between atoms: _337  and  _338
REMARK  132  A    between atoms: _341  and  _343
REMARK  133  A    between atoms: _343  and  _344
REMARK  134  A    between atoms: _347  and  _349
REMARK  135  A    between atoms: _349  and  _350
REMARK  136  A    between atoms: _349  and  _352
REMARK  137  A    between atoms: _352  and  _353
REMARK  138  A    between atoms: _355  and  _357
REMARK  139  A    between atoms: _357  and  _358
REMARK  140  A    between atoms: _357  and  _360
REMARK  141  A    between atoms: _360  and  _361
REMARK  142  A    between atoms: _361  and  _362
REMARK  143  A    between atoms: _364  and  _366
REMARK  144  A    between atoms: _366  and  _367
REMARK  145  A    between atoms: _366  and  _369
REMARK  146  A    between atoms: _369  and  _370
REMARK  147  A    between atoms: _370  and  _371
REMARK  148  A    between atoms: _376  and  _378
REMARK  149  A    between atoms: _378  and  _379
REMARK  150  A    between atoms: _378  and  _381
REMARK  151  A    between atoms: _381  and  _382
REMARK  152  A    between atoms: _384  and  _386
REMARK  153  A    between atoms: _386  and  _387
REMARK  154  A    between atoms: _386  and  _389
REMARK  155  A    between atoms: _389  and  _390
REMARK  156  A    between atoms: _395  and  _396
REMARK  157  A    between atoms: _398  and  _400
REMARK  158  A    between atoms: _400  and  _401
REMARK  159  A    between atoms: _400  and  _403
REMARK  160  A    between atoms: _403  and  _404
REMARK  161  A    between atoms: _406  and  _408
REMARK  162  A    between atoms: _408  and  _409
REMARK  163  A    between atoms: _412  and  _414
REMARK  164  A    between atoms: _414  and  _415
REMARK  165  A    between atoms: _414  and  _417
REMARK  166  A    between atoms: _417  and  _418
REMARK  167  A    between atoms: _428  and  _430
REMARK  168  A    between atoms: _430  and  _431
REMARK  169  A    between atoms: _430  and  _433
REMARK  170  A    between atoms: _433  and  _434
REMARK  171  A    between atoms: _434  and  _435
REMARK  172  A    between atoms: _440  and  _442
REMARK  173  A    between atoms: _442  and  _443
REMARK  174  A    between atoms: _442  and  _445
REMARK  175  A    between atoms: _448  and  _450
REMARK  176  A    between atoms: _450  and  _451
REMARK  177  A    between atoms: _450  and  _453
REMARK  178  A    between atoms: _453  and  _454
REMARK  179  A    between atoms: _457  and  _459
REMARK  180  A    between atoms: _459  and  _460
REMARK  181  A    between atoms: _459  and  _462
REMARK  182  A    between atoms: _462  and  _463
REMARK  183  A    between atoms: _468  and  _469
REMARK  184  A    between atoms: _471  and  _473
REMARK  185  A    between atoms: _473  and  _474
REMARK  186  A    between atoms: _473  and  _476
REMARK  187  A    between atoms: _479  and  _481
REMARK  188  A    between atoms: _481  and  _482
REMARK  189  A    between atoms: _481  and  _484
REMARK  190  A    between atoms: _484  and  _485
REMARK  191  A    between atoms: _491  and  _493
REMARK  192  A    between atoms: _493  and  _494
REMARK  193  A    between atoms: _493  and  _496
REMARK  194  A    between atoms: _496  and  _497
REMARK  195  A    between atoms: _497  and  _498
REMARK  196  A    between atoms: _503  and  _505
REMARK  197  A    between atoms: _505  and  _506
REMARK  198  A    between atoms: _505  and  _508
REMARK  199  A    between atoms: _508  and  _509
REMARK  200  A    between atoms: _511  and  _513
REMARK  201  A    between atoms: _513  and  _514
REMARK  202  A    between atoms: _513  and  _516
REMARK  203  A    between atoms: _516  and  _517
REMARK  204  A    between atoms: _522  and  _524
REMARK  205  A    between atoms: _524  and  _525
REMARK  206  A    between atoms: _524  and  _527
REMARK  207  A    between atoms: _527  and  _528
REMARK  208  A    between atoms: _538  and  _540
REMARK  209  A    between atoms: _540  and  _541
REMARK  210  A    between atoms: _540  and  _543
REMARK  211  A    between atoms: _543  and  _544
REMARK  212  A    between atoms: _547  and  _549
REMARK  213  A    between atoms: _549  and  _550
REMARK  214  A    between atoms: _549  and  _552
REMARK  215  A    between atoms: _552  and  _553
REMARK  216  A    between atoms: _558  and  _559
REMARK  217  A    between atoms: _561  and  _563
REMARK  218  A    between atoms: _563  and  _564
REMARK  219  A    between atoms: _563  and  _566
REMARK  220  A    between atoms: _566  and  _567
REMARK  221  A    between atoms: _570  and  _572
REMARK  222  A    between atoms: _572  and  _573
REMARK  223  A    between atoms: _572  and  _575
REMARK  224  A    between atoms: _575  and  _576
REMARK  225  A    between atoms: _576  and  _577
REMARK  226  A    between atoms: _580  and  _582
REMARK  227  A    between atoms: _582  and  _583
REMARK  228  A    between atoms: _582  and  _585
REMARK  229  A    between atoms: _585  and  _586
REMARK  230  A    between atoms: _591  and  _593
REMARK  231  A    between atoms: _593  and  _594
REMARK  232  A    between atoms: _596  and  _598
REMARK  233  A    between atoms: _598  and  _599
REMARK  234  A    between atoms: _598  and  _601
REMARK  235  A    between atoms: _601  and  _602
REMARK  236  A    between atoms: _602  and  _603
REMARK  237  A    between atoms: _605  and  _607
REMARK  238  A    between atoms: _607  and  _608
REMARK  239  A    between atoms: _607  and  _610
REMARK  240  A    between atoms: _610  and  _611
REMARK  241  A    between atoms: _614  and  _616
REMARK  242  A    between atoms: _616  and  _617
REMARK  243  A    between atoms: _616  and  _619
REMARK  244  A    between atoms: _619  and  _620
REMARK  245  A    between atoms: _630  and  _632
REMARK  246  A    between atoms: _632  and  _633
REMARK  247  A    between atoms: _632  and  _635
REMARK  248  A    between atoms: _635  and  _636
REMARK  249  A    between atoms: _638  and  _640
REMARK  250  A    between atoms: _640  and  _641
REMARK  251  A    between atoms: _640  and  _643
REMARK  252  A    between atoms: _643  and  _644
REMARK  253  A    between atoms: _649  and  _651
REMARK  254  A    between atoms: _651  and  _652
REMARK  255  A    between atoms: _651  and  _654
REMARK  256  A    between atoms: _654  and  _655
REMARK  257  A    between atoms: _661  and  _663
REMARK  258  A    between atoms: _663  and  _664
REMARK  259  A    between atoms: _663  and  _666
REMARK  260  A    between atoms: _666  and  _667
REMARK  261  A    between atoms: _667  and  _668
REMARK  262  A    between atoms: _671  and  _673
REMARK  263  A    between atoms: _673  and  _674
REMARK  264  A    between atoms: _673  and  _676
REMARK  265  A    between atoms: _676  and  _677
REMARK  266  A    between atoms: _687  and  _689
REMARK  267  A    between atoms: _689  and  _690
REMARK  268  A    between atoms: _689  and  _692
REMARK  269  A    between atoms: _692  and  _693
REMARK  270  A    between atoms: _696  and  _698
REMARK  271  A    between atoms: _698  and  _699
REMARK  272  A    between atoms: _698  and  _701
REMARK  273  A    between atoms: _701  and  _702
REMARK  274  A    between atoms: _704  and  _706
REMARK  275  A    between atoms: _706  and  _707
REMARK  276  A    between atoms: _706  and  _709
REMARK  277  A    between atoms: _709  and  _710
REMARK  278  A    between atoms: _712  and  _714
REMARK  279  A    between atoms: _714  and  _715
REMARK  280  A    between atoms: _714  and  _717
REMARK  281  A    between atoms: _717  and  _718
REMARK                            x       y       z     vdW  Elec       q    Type
REMARK                         _______ _______ _______ _____ _____    ______ ____
ROOT
ATOM      1  C   PHE A   4      10.128   4.056  45.717  0.00  0.00    +0.241 C 
ATOM      2  N   ASN A   5       9.153   3.879  46.600  0.00  0.00    -0.297 N 
ATOM      3  H   ASN A   5       8.920   2.929  46.954  0.00  0.00    +0.150 HD
ATOM      4  O   PHE A   4      10.280   5.117  45.099  0.00  0.00    -0.273 OA
ENDROOT
BRANCH   2   5
ATOM      5  CA  ASN A   5       8.420   5.045  47.060  0.00  0.00    +0.158 C 
BRANCH   5   6
ATOM      6  C   ASN A   5       8.908   5.431  48.442  0.00  0.00    +0.241 C 
ATOM      7  O   ASN A   5       9.343   4.584  49.199  0.00  0.00    -0.273 OA
ATOM      8  N   TRP A   6       8.866   6.718  48.744  0.00  0.00    -0.297 N 
ATOM      9  H   TRP A   6       8.417   7.391  48.091  0.00  0.00    +0.150 HD
BRANCH   8  10
ATOM     10  CA  TRP A   6       9.444   7.188  49.981  0.00  0.00    +0.153 C 
BRANCH  10  11
ATOM     11  C   TRP A   6       8.510   6.855  51.154  0.00  0.00    +0.241 C 
ATOM     12  N   TYR A   7       9.094   6.613  52.327  0.00  0.00    -0.298 N 
ATOM     13  H   TYR A   7      10.133   6.603  52.371  0.00  0.00    +0.150 HD
ATOM     14  O   TRP A   6       7.292   6.783  50.985  0.00  0.00    -0.273 OA
BRANCH  12  15
ATOM     15  CA  TYR A   7       8.332   6.357  53.571  0.00  0.00    +0.141 C 
BRANCH  15  16
ATOM     16  C   TYR A   7       8.891   7.343  54.577  0.00  0.00    +0.227 C 
ATOM     17  O   TYR A   7      10.098   7.371  54.804  0.00  0.00    -0.286 OA
ENDBRANCH  15  16
BRANCH  15  18
ATOM     18  CB  TYR A   7       8.484   4.909  54.065  0.00  0.00    +0.054 C 
BRANCH  18  19
ATOM     19  CG  TYR A   7       7.901   3.887  53.124  0.00  0.00    -0.020 A 
ATOM     20  CD2 TYR A   7       6.517   3.771  52.970  0.00  0.00    -0.001 A 
ATOM     21  CE2 TYR A   7       5.972   2.857  52.090  0.00  0.00    +0.036 A 
ATOM     22  CZ  TYR A   7       6.804   2.026  51.344  0.00  0.00    +0.134 A 
ATOM     23  CE1 TYR A   7       8.160   2.118  51.457  0.00  0.00    +0.036 A 
ATOM     24  CD1 TYR A   7       8.716   3.055  52.357  0.00  0.00    -0.001 A 
BRANCH  22  25
ATOM     25  OH  TYR A   7       6.243   1.125  50.485  0.00  0.00    -0.506 OA
ATOM     26  HH  TYR A   7       5.703   1.607  49.810  0.00  0.00    +0.292 HD
ENDBRANCH  22  25
ENDBRANCH  18  19
ENDBRANCH  15  18
ENDBRANCH  12  15
ENDBRANCH  10  11
BRANCH  10  27
ATOM     27  CB  TRP A   6       9.735   8.692  49.896  0.00  0.00    +0.057 C 
BRANCH  27  28
ATOM     28  CG  TRP A   6      10.370   9.184  51.131  0.00  0.00    -0.002 A 
ATOM     29  CD1 TRP A   6       9.906  10.174  51.971  0.00  0.00    +0.068 A 
ATOM     30  NE1 TRP A   6      10.779  10.330  53.039  0.00  0.00    -0.352 N 
ATOM     31  HE1 TRP A   6      10.675  11.023  53.808  0.00  0.00    +0.166 HD
ATOM     32  CE2 TRP A   6      11.803   9.421  52.916  0.00  0.00    +0.056 A 
ATOM     33  CZ2 TRP A   6      12.927   9.194  53.744  0.00  0.00    +0.017 A 
ATOM     34  CH2 TRP A   6      13.811   8.211  53.358  0.00  0.00    +0.001 A 
ATOM     35  CZ3 TRP A   6      13.605   7.453  52.184  0.00  0.00    +0.000 A 
ATOM     36  CE3 TRP A   6      12.497   7.690  51.356  0.00  0.00    +0.001 A 
ATOM     37  CD2 TRP A   6      11.580   8.681  51.721  0.00  0.00    +0.013 A 
ENDBRANCH  27  28
ENDBRANCH  10  27
ENDBRANCH   8  10
ENDBRANCH   5   6
BRANCH   5  38
ATOM     38  CB  ASN A   5       6.933   4.786  47.053  0.00  0.00    +0.114 C 
BRANCH  38  39
ATOM     39  CG  ASN A   5       6.386   4.606  45.636  0.00  0.00    +0.222 C 
ATOM     40  ND2 ASN A   5       5.443   3.687  45.513  0.00  0.00    -0.329 N 
ATOM     41 HD21 ASN A   5       5.119   3.159  46.348  0.00  0.00    +0.145 HD
ATOM     42 HD22 ASN A   5       5.025   3.492  44.581  0.00  0.00    +0.145 HD
ATOM     43  OD1 ASN A   5       6.821   5.279  44.665  0.00  0.00    -0.275 OA
ENDBRANCH  38  39
ENDBRANCH   5  38
ENDBRANCH   2   5
BRANCH   1  44
ATOM     44  CA  PHE A   4      11.063   2.867  45.493  0.00  0.00    +0.153 C 
BRANCH  44  47
ATOM     45  C   ASP A   3      10.958   1.055  43.889  0.00  0.00    +0.241 C 
ATOM     46  O   ASP A   3      11.351   0.199  44.720  0.00  0.00    -0.273 OA
ATOM     47  N   PHE A   4      10.867   2.358  44.148  0.00  0.00    -0.297 N 
ATOM     48  H   PHE A   4      10.652   3.020  43.375  0.00  0.00    +0.150 HD
BRANCH  45  49
ATOM     49  CA  ASP A   3      10.595   0.647  42.455  0.00  0.00    +0.160 C 
BRANCH  49  51
ATOM     50  C   LEU A   2      12.672  -0.159  41.585  0.00  0.00    +0.241 C 
ATOM     51  N   ASP A   3      11.449  -0.478  42.020  0.00  0.00    -0.297 N 
ATOM     52  H   ASP A   3      11.117  -1.463  42.051  0.00  0.00    +0.150 HD
ATOM     53  O   LEU A   2      13.036   1.017  41.479  0.00  0.00    -0.273 OA
BRANCH  50  54
ATOM     54  CA  LEU A   2      13.623  -1.302  41.244  0.00  0.00    +0.149 C 
BRANCH  54  56
ATOM     55  C   VAL A   1      14.343  -1.794  38.968  0.00  0.00    +0.238 C 
ATOM     56  N   LEU A   2      14.350  -0.984  40.021  0.00  0.00    -0.297 N 
ATOM     57  H   LEU A   2      14.890  -0.097  39.971  0.00  0.00    +0.150 HD
ATOM     58  O   VAL A   1      13.670  -2.814  38.898  0.00  0.00    -0.274 OA
BRANCH  55  59
ATOM     59  CA  VAL A   1      15.200  -1.347  37.797  0.00  0.00    +0.145 C 
BRANCH  59  60
ATOM     60  CB  VAL A   1      14.295  -0.948  36.582  0.00  0.00    +0.025 C 
ATOM     61  CG2 VAL A   1      13.168   0.018  37.030  0.00  0.00    +0.002 C 
ATOM     62  CG1 VAL A   1      15.137  -0.325  35.443  0.00  0.00    +0.002 C 
ENDBRANCH  59  60
BRANCH  59  63
ATOM     63  N   VAL A   1      16.105  -2.416  37.475  0.00  0.00    -0.238 NA
ATOM     64  H   VAL A   1      15.729  -3.291  37.056  0.00  0.00    +0.142 HD
ENDBRANCH  59  63
ENDBRANCH  55  59
ENDBRANCH  54  56
BRANCH  54  65
ATOM     65  CB  LEU A   2      14.624  -1.500  42.400  0.00  0.00    +0.029 C 
BRANCH  65  66
ATOM     66  CG  LEU A   2      15.790  -2.465  42.181  0.00  0.00    +0.002 C 
ATOM     67  CD2 LEU A   2      16.808  -2.316  43.353  0.00  0.00    +0.000 C 
ATOM     68  CD1 LEU A   2      15.224  -3.906  42.064  0.00  0.00    +0.000 C 
ENDBRANCH  65  66
ENDBRANCH  54  65
ENDBRANCH  50  54
ENDBRANCH  49  51
BRANCH  49  69
ATOM     69  CB  ASP A   3       9.119   0.293  42.383  0.00  0.00    +0.143 C 
BRANCH  69  70
ATOM     70  CG  ASP A   3       8.814  -0.987  43.077  0.00  0.00    +0.367 C 
ATOM     71  OD2 ASP A   3       8.130  -0.954  44.125  0.00  0.00    -0.246 OA
ATOM     72  OD1 ASP A   3       9.240  -2.036  42.570  0.00  0.00    -0.246 OA
ENDBRANCH  69  70
ENDBRANCH  49  69
ENDBRANCH  45  49
ENDBRANCH  44  47
BRANCH  44  73
ATOM     73  CB  PHE A   4      12.560   3.214  45.704  0.00  0.00    +0.055 C 
BRANCH  73  74
ATOM     74  CG  PHE A   4      12.927   3.638  47.131  0.00  0.00    -0.020 A 
ATOM     75  CD2 PHE A   4      12.151   3.272  48.229  0.00  0.00    -0.004 A 
ATOM     76  CE2 PHE A   4      12.514   3.663  49.543  0.00  0.00    -0.000 A 
ATOM     77  CZ  PHE A   4      13.677   4.452  49.733  0.00  0.00    -0.000 A 
ATOM     78  CE1 PHE A   4      14.477   4.792  48.631  0.00  0.00    -0.000 A 
ATOM     79  CD1 PHE A   4      14.099   4.377  47.346  0.00  0.00    -0.004 A 
ENDBRANCH  73  74
ENDBRANCH  44  73
ENDBRANCH   1  44
TORSDOF 28
REMARK  Name = ../refined-set-2016/3f5k/3f5k_pocket.pdb
REMARK  281 active torsions:
REMARK  status: ('A' for Active; 'I' for Inactive)
REMARK    1  A    between atoms: _1  and  _3
REMARK    2  A    between atoms: _3  and  _4
REMARK    3  A    between atoms: _3  and  _6
REMARK    4  A    between atoms: _9  and  _11
REMARK    5  A    between atoms: _11  and  _12
REMARK    6  A    between atoms: _11  and  _14
REMARK    7  A    between atoms: _14  and  _15
REMARK    8  A    between atoms: _18  and  _20
REMARK    9  A    between atoms: _20  and  _21
REMARK   10  A    between atoms: _20  and  _23
REMARK   11  A    between atoms: _23  and  _24
REMARK   12  A    between atoms: _26  and  _28
REMARK   13  A    between atoms: _28  and  _29
REMARK   14  A    between atoms: _32  and  _34
REMARK   15  A    between atoms: _34  and  _35
REMARK   16  A    between atoms: _34  and  _37
REMARK   17  A    between atoms: _37  and  _38
REMARK   18  A    between atoms: _38  and  _39
REMARK   19  A    between atoms: _44  and  _46
REMARK   20  A    between atoms: _46  and  _47
REMARK   21  A    between atoms: _46  and  _49
REMARK   22  A    between atoms: _49  and  _50
REMARK   23  A    between atoms: _50  and  _51
REMARK   24  A    between atoms: _51  and  _52
REMARK   25  A    between atoms: _61  and  _63
REMARK   26  A    between atoms: _63  and  _64
REMARK   27  A    between atoms: _63  and  _66
REMARK   28  A    between atoms: _66  and  _67
REMARK   29  A    between atoms: _72  and  _74
REMARK   30  A    between atoms: _74  and  _75
REMARK   31  A    between atoms: _74  and  _77
REMARK   32  A    between atoms: _77  and  _78
REMARK   33  A    between atoms: _83  and  _85
REMARK   34  A    between atoms: _85  and  _86
REMARK   35  A    between atoms: _85  and  _88
REMARK   36  A    between atoms: _88  and  _89
REMARK   37  A    between atoms: _94  and  _95
REMARK   38  A    between atoms: _97  and  _99
REMARK   39  A    between atoms: _99  and  _100
REMARK   40  A    between atoms: _99  and  _102
REMARK   41  A    between atoms: _102  and  _103
REMARK   42  A    between atoms: _108  and  _110
REMARK   43  A    between atoms: _110  and  _111
REMARK   44  A    between atoms: _110  and  _113
REMARK   45  A    between atoms: _113  and  _114
REMARK   46  A    between atoms: _114  and  _115
REMARK   47  A    between atoms: _120  and  _122
REMARK   48  A    between atoms: _122  and  _123
REMARK   49  A    between atoms: _122  and  _125
REMARK   50  A    between atoms: _125  and  _126
REMARK   51  A    between atoms: _126  and  _127
REMARK   52  A    between atoms: _127  and  _128
REMARK   53  A    between atoms: _137  and  _139
REMARK   54  A    between atoms: _139  and  _140
REMARK   55  A    between atoms: _139  and  _142
REMARK   56  A    between atoms: _142  and  _143
REMARK   57  A    between atoms: _146  and  _148
REMARK   58  A    between atoms: _148  and  _149
REMARK   59  A    between atoms: _148  and  _151
REMARK   60  A    between atoms: _151  and  _152
REMARK   61  A    between atoms: _155  and  _157
REMARK   62  A    between atoms: _157  and  _158
REMARK   63  A    between atoms: _157  and  _160
REMARK   64  A    between atoms: _160  and  _161
REMARK   65  A    between atoms: _164  and  _166
REMARK   66  A    between atoms: _166  and  _167
REMARK   67  A    between atoms: _166  and  _169
REMARK   68  A    between atoms: _169  and  _170
REMARK   69  A    between atoms: _173  and  _175
REMARK   70  A    between atoms: _175  and  _176
REMARK   71  A    between atoms: _175  and  _178
REMARK   72  A    between atoms: _178  and  _179
REMARK   73  A    between atoms: _179  and  _180
REMARK   74  A    between atoms: _185  and  _187
REMARK   75  A    between atoms: _187  and  _188
REMARK   76  A    between atoms: _187  and  _190
REMARK   77  A    between atoms: _190  and  _191
REMARK   78  A    between atoms: _194  and  _196
REMARK   79  A    between atoms: _196  and  _197
REMARK   80  A    between atoms: _196  and  _199
REMARK   81  A    between atoms: _199  and  _200
REMARK   82  A    between atoms: _205  and  _207
REMARK   83  A    between atoms: _207  and  _208
REMARK   84  A    between atoms: _207  and  _210
REMARK   85  A    between atoms: _213  and  _215
REMARK   86  A    between atoms: _215  and  _216
REMARK   87  A    between atoms: _215  and  _218
REMARK   88  A    between atoms: _218  and  _219
REMARK   89  A    between atoms: _222  and  _224
REMARK   90  A    between atoms: _224  and  _225
REMARK   91  A    between atoms: _224  and  _227
REMARK   92  A    between atoms: _227  and  _228
REMARK   93  A    between atoms: _231  and  _233
REMARK   94  A    between atoms: _233  and  _234
REMARK   95  A    between atoms: _233  and  _236
REMARK   96  A    between atoms: _236  and  _237
REMARK   97  A    between atoms: _243  and  _245
REMARK   98  A    between atoms: _245  and  _246
REMARK   99  A    between atoms: _245  and  _248
REMARK  100  A    between atoms: _248  and  _249
REMARK  101  A    between atoms: _254  and  _256
REMARK  102  A    between atoms: _256  and  _257
REMARK  103  A    between atoms: _256  and  _259
REMARK  104  A    between atoms: _259  and  _260
REMARK  105  A    between atoms: _270  and  _272
REMARK  106  A    between atoms: _272  and  _273
REMARK  107  A    between atoms: _272  and  _275
REMARK  108  A    between atoms: _275  and  _276
REMARK  109  A    between atoms: _281  and  _282
REMARK  110  A    between atoms: _284  and  _286
REMARK  111  A    between atoms: _286  and  _287
REMARK  112  A    between atoms: _286  and  _289
REMARK  113  A    between atoms: _289  and  _290
REMARK  114  A    between atoms: _295  and  _297
REMARK  115  A    between atoms: _297  and  _298
REMARK  116  A    between atoms: _297  and  _300
REMARK  117  A    between atoms: _300  and  _301
REMARK  118  A    between atoms: _306  and  _308
REMARK  119  A    between atoms: _308  and  _309
REMARK  120  A    between atoms: _308  and  _311
REMARK  121  A    between atoms: _311  and  _312
REMARK  122  A    between atoms: _312  and  _313
REMARK  123  A    between atoms: _318  and  _320
REMARK  124  A    between atoms: _320  and  _321
REMARK  125  A    between atoms: _320  and  _323
REMARK  126  A    between atoms: _323  and  _324
REMARK  127  A    between atoms: _329  and  _330
REMARK  128  A    between atoms: _332  and  _334
REMARK  129  A    between atoms: _334  and  _335
REMARK  130  A    between atoms: _334  and  _337
REMARK  131  A    between atoms: _337  and  _338
REMARK  132  A    between atoms: _341  and  _343
REMARK  133  A    between atoms: _343  and  _344
REMARK  134  A    between atoms: _347  and  _349
REMARK  135  A    between atoms: _349  and  _350
REMARK  136  A    between atoms: _349  and  _352
REMARK  137  A    between atoms: _352  and  _353
REMARK  138  A    between atoms: _355  and  _357
REMARK  139  A    between atoms: _357  and  _358
REMARK  140  A    between atoms: _357  and  _360
REMARK  141  A    between atoms: _360  and  _361
REMARK  142  A    between atoms: _361  and  _362
REMARK  143  A    between atoms: _364  and  _366
REMARK  144  A    between atoms: _366  and  _367
REMARK  145  A    between atoms: _366  and  _369
REMARK  146  A    between atoms: _369  and  _370
REMARK  147  A    between atoms: _370  and  _371
REMARK  148  A    between atoms: _376  and  _378
REMARK  149  A    between atoms: _378  and  _379
REMARK  150  A    between atoms: _378  and  _381
REMARK  151  A    between atoms: _381  and  _382
REMARK  152  A    between atoms: _384  and  _386
REMARK  153  A    between atoms: _386  and  _387
REMARK  154  A    between atoms: _386  and  _389
REMARK  155  A    between atoms: _389  and  _390
REMARK  156  A    between atoms: _395  and  _396
REMARK  157  A    between atoms: _398  and  _400
REMARK  158  A    between atoms: _400  and  _401
REMARK  159  A    between atoms: _400  and  _403
REMARK  160  A    between atoms: _403  and  _404
REMARK  161  A    between atoms: _406  and  _408
REMARK  162  A    between atoms: _408  and  _409
REMARK  163  A    between atoms: _412  and  _414
REMARK  164  A    between atoms: _414  and  _415
REMARK  165  A    between atoms: _414  and  _417
REMARK  166  A    between atoms: _417  and  _418
REMARK  167  A    between atoms: _428  and  _430
REMARK  168  A    between atoms: _430  and  _431
REMARK  169  A    between atoms: _430  and  _433
REMARK  170  A    between atoms: _433  and  _434
REMARK  171  A    between atoms: _434  and  _435
REMARK  172  A    between atoms: _440  and  _442
REMARK  173  A    between atoms: _442  and  _443
REMARK  174  A    between atoms: _442  and  _445
REMARK  175  A    between atoms: _448  and  _450
REMARK  176  A    between atoms: _450  and  _451
REMARK  177  A    between atoms: _450  and  _453
REMARK  178  A    between atoms: _453  and  _454
REMARK  179  A    between atoms: _457  and  _459
REMARK  180  A    between atoms: _459  and  _460
REMARK  181  A    between atoms: _459  and  _462
REMARK  182  A    between atoms: _462  and  _463
REMARK  183  A    between atoms: _468  and  _469
REMARK  184  A    between atoms: _471  and  _473
REMARK  185  A    between atoms: _473  and  _474
REMARK  186  A    between atoms: _473  and  _476
REMARK  187  A    between atoms: _479  and  _481
REMARK  188  A    between atoms: _481  and  _482
REMARK  189  A    between atoms: _481  and  _484
REMARK  190  A    between atoms: _484  and  _485
REMARK  191  A    between atoms: _491  and  _493
REMARK  192  A    between atoms: _493  and  _494
REMARK  193  A    between atoms: _493  and  _496
REMARK  194  A    between atoms: _496  and  _497
REMARK  195  A    between atoms: _497  and  _498
REMARK  196  A    between atoms: _503  and  _505
REMARK  197  A    between atoms: _505  and  _506
REMARK  198  A    between atoms: _505  and  _508
REMARK  199  A    between atoms: _508  and  _509
REMARK  200  A    between atoms: _511  and  _513
REMARK  201  A    between atoms: _513  and  _514
REMARK  202  A    between atoms: _513  and  _516
REMARK  203  A    between atoms: _516  and  _517
REMARK  204  A    between atoms: _522  and  _524
REMARK  205  A    between atoms: _524  and  _525
REMARK  206  A    between atoms: _524  and  _527
REMARK  207  A    between atoms: _527  and  _528
REMARK  208  A    between atoms: _538  and  _540
REMARK  209  A    between atoms: _540  and  _541
REMARK  210  A    between atoms: _540  and  _543
REMARK  211  A    between atoms: _543  and  _544
REMARK  212  A    between atoms: _547  and  _549
REMARK  213  A    between atoms: _549  and  _550
REMARK  214  A    between atoms: _549  and  _552
REMARK  215  A    between atoms: _552  and  _553
REMARK  216  A    between atoms: _558  and  _559
REMARK  217  A    between atoms: _561  and  _563
REMARK  218  A    between atoms: _563  and  _564
REMARK  219  A    between atoms: _563  and  _566
REMARK  220  A    between atoms: _566  and  _567
REMARK  221  A    between atoms: _570  and  _572
REMARK  222  A    between atoms: _572  and  _573
REMARK  223  A    between atoms: _572  and  _575
REMARK  224  A    between atoms: _575  and  _576
REMARK  225  A    between atoms: _576  and  _577
REMARK  226  A    between atoms: _580  and  _582
REMARK  227  A    between atoms: _582  and  _583
REMARK  228  A    between atoms: _582  and  _585
REMARK  229  A    between atoms: _585  and  _586
REMARK  230  A    between atoms: _591  and  _593
REMARK  231  A    between atoms: _593  and  _594
REMARK  232  A    between atoms: _596  and  _598
REMARK  233  A    between atoms: _598  and  _599
REMARK  234  A    between atoms: _598  and  _601
REMARK  235  A    between atoms: _601  and  _602
REMARK  236  A    between atoms: _602  and  _603
REMARK  237  A    between atoms: _605  and  _607
REMARK  238  A    between atoms: _607  and  _608
REMARK  239  A    between atoms: _607  and  _610
REMARK  240  A    between atoms: _610  and  _611
REMARK  241  A    between atoms: _614  and  _616
REMARK  242  A    between atoms: _616  and  _617
REMARK  243  A    between atoms: _616  and  _619
REMARK  244  A    between atoms: _619  and  _620
REMARK  245  A    between atoms: _630  and  _632
REMARK  246  A    between atoms: _632  and  _633
REMARK  247  A    between atoms: _632  and  _635
REMARK  248  A    between atoms: _635  and  _636
REMARK  249  A    between atoms: _638  and  _640
REMARK  250  A    between atoms: _640  and  _641
REMARK  251  A    between atoms: _640  and  _643
REMARK  252  A    between atoms: _643  and  _644
REMARK  253  A    between atoms: _649  and  _651
REMARK  254  A    between atoms: _651  and  _652
REMARK  255  A    between atoms: _651  and  _654
REMARK  256  A    between atoms: _654  and  _655
REMARK  257  A    between atoms: _661  and  _663
REMARK  258  A    between atoms: _663  and  _664
REMARK  259  A    between atoms: _663  and  _666
REMARK  260  A    between atoms: _666  and  _667
REMARK  261  A    between atoms: _667  and  _668
REMARK  262  A    between atoms: _671  and  _673
REMARK  263  A    between atoms: _673  and  _674
REMARK  264  A    between atoms: _673  and  _676
REMARK  265  A    between atoms: _676  and  _677
REMARK  266  A    between atoms: _687  and  _689
REMARK  267  A    between atoms: _689  and  _690
REMARK  268  A    between atoms: _689  and  _692
REMARK  269  A    between atoms: _692  and  _693
REMARK  270  A    between atoms: _696  and  _698
REMARK  271  A    between atoms: _698  and  _699
REMARK  272  A    between atoms: _698  and  _701
REMARK  273  A    between atoms: _701  and  _702
REMARK  274  A    between atoms: _704  and  _706
REMARK  275  A    between atoms: _706  and  _707
REMARK  276  A    between atoms: _706  and  _709
REMARK  277  A    between atoms: _709  and  _710
REMARK  278  A    between atoms: _712  and  _714
REMARK  279  A    between atoms: _714  and  _715
REMARK  280  A    between atoms: _714  and  _717
REMARK  281  A    between atoms: _717  and  _718
REMARK                            x       y       z     vdW  Elec       q    Type
REMARK                         _______ _______ _______ _____ _____    ______ ____
ROOT
ATOM      1  CB  HIS A   1       9.864  -0.833  50.038  0.00  0.00    +0.072 C 
ENDROOT
BRANCH   1   2
ATOM      2  CG  HIS A   1       9.273  -0.311  48.759  0.00  0.00    +0.082 A 
ATOM      3  ND1 HIS A   1       7.981   0.168  48.679  0.00  0.00    -0.227 NA
ATOM      4  CE1 HIS A   1       7.721   0.526  47.432  0.00  0.00    +0.199 A 
ATOM      5  NE2 HIS A   1       8.796   0.292  46.695  0.00  0.00    -0.221 NA
ATOM      6  CD2 HIS A   1       9.776  -0.248  47.498  0.00  0.00    +0.115 A 
ENDBRANCH   1   2
BRANCH   1   7
ATOM      7  CA  HIS A   1      10.455  -2.244  49.921  0.00  0.00    +0.139 C 
BRANCH   7   8
ATOM      8  N   HIS A   1      10.804  -2.761  51.251  0.00  0.00    -0.239 NA
ATOM      9  H   HIS A   1      11.179  -2.104  51.964  0.00  0.00    +0.142 HD
ENDBRANCH   7   8
BRANCH   7  10
ATOM     10  C   HIS A   1      11.672  -2.259  48.964  0.00  0.00    +0.224 C 
ATOM     11  O   HIS A   1      11.679  -2.969  47.953  0.00  0.00    -0.287 OA
ENDBRANCH   7  10
ENDBRANCH   1   7
TORSDOF 4
REMARK  Name = ../refined-set-2016/3f5k/3f5k_pocket.pdb
REMARK  281 active torsions:
REMARK  status: ('A' for Active; 'I' for Inactive)
REMARK    1  A    between atoms: _1  and  _3
REMARK    2  A    between atoms: _3  and  _4
REMARK    3  A    between atoms: _3  and  _6
REMARK    4  A    between atoms: _9  and  _11
REMARK    5  A    between atoms: _11  and  _12
REMARK    6  A    between atoms: _11  and  _14
REMARK    7  A    between atoms: _14  and  _15
REMARK    8  A    between atoms: _18  and  _20
REMARK    9  A    between atoms: _20  and  _21
REMARK   10  A    between atoms: _20  and  _23
REMARK   11  A    between atoms: _23  and  _24
REMARK   12  A    between atoms: _26  and  _28
REMARK   13  A    between atoms: _28  and  _29
REMARK   14  A    between atoms: _32  and  _34
REMARK   15  A    between atoms: _34  and  _35
REMARK   16  A    between atoms: _34  and  _37
REMARK   17  A    between atoms: _37  and  _38
REMARK   18  A    between atoms: _38  and  _39
REMARK   19  A    between atoms: _44  and  _46
REMARK   20  A    between atoms: _46  and  _47
REMARK   21  A    between atoms: _46  and  _49
REMARK   22  A    between atoms: _49  and  _50
REMARK   23  A    between atoms: _50  and  _51
REMARK   24  A    between atoms: _51  and  _52
REMARK   25  A    between atoms: _61  and  _63
REMARK   26  A    between atoms: _63  and  _64
REMARK   27  A    between atoms: _63  and  _66
REMARK   28  A    between atoms: _66  and  _67
REMARK   29  A    between atoms: _72  and  _74
REMARK   30  A    between atoms: _74  and  _75
REMARK   31  A    between atoms: _74  and  _77
REMARK   32  A    between atoms: _77  and  _78
REMARK   33  A    between atoms: _83  and  _85
REMARK   34  A    between atoms: _85  and  _86
REMARK   35  A    between atoms: _85  and  _88
REMARK   36  A    between atoms: _88  and  _89
REMARK   37  A    between atoms: _94  and  _95
REMARK   38  A    between atoms: _97  and  _99
REMARK   39  A    between atoms: _99  and  _100
REMARK   40  A    between atoms: _99  and  _102
REMARK   41  A    between atoms: _102  and  _103
REMARK   42  A    between atoms: _108  and  _110
REMARK   43  A    between atoms: _110  and  _111
REMARK   44  A    between atoms: _110  and  _113
REMARK   45  A    between atoms: _113  and  _114
REMARK   46  A    between atoms: _114  and  _115
REMARK   47  A    between atoms: _120  and  _122
REMARK   48  A    between atoms: _122  and  _123
REMARK   49  A    between atoms: _122  and  _125
REMARK   50  A    between atoms: _125  and  _126
REMARK   51  A    between atoms: _126  and  _127
REMARK   52  A    between atoms: _127  and  _128
REMARK   53  A    between atoms: _137  and  _139
REMARK   54  A    between atoms: _139  and  _140
REMARK   55  A    between atoms: _139  and  _142
REMARK   56  A    between atoms: _142  and  _143
REMARK   57  A    between atoms: _146  and  _148
REMARK   58  A    between atoms: _148  and  _149
REMARK   59  A    between atoms: _148  and  _151
REMARK   60  A    between atoms: _151  and  _152
REMARK   61  A    between atoms: _155  and  _157
REMARK   62  A    between atoms: _157  and  _158
REMARK   63  A    between atoms: _157  and  _160
REMARK   64  A    between atoms: _160  and  _161
REMARK   65  A    between atoms: _164  and  _166
REMARK   66  A    between atoms: _166  and  _167
REMARK   67  A    between atoms: _166  and  _169
REMARK   68  A    between atoms: _169  and  _170
REMARK   69  A    between atoms: _173  and  _175
REMARK   70  A    between atoms: _175  and  _176
REMARK   71  A    between atoms: _175  and  _178
REMARK   72  A    between atoms: _178  and  _179
REMARK   73  A    between atoms: _179  and  _180
REMARK   74  A    between atoms: _185  and  _187
REMARK   75  A    between atoms: _187  and  _188
REMARK   76  A    between atoms: _187  and  _190
REMARK   77  A    between atoms: _190  and  _191
REMARK   78  A    between atoms: _194  and  _196
REMARK   79  A    between atoms: _196  and  _197
REMARK   80  A    between atoms: _196  and  _199
REMARK   81  A    between atoms: _199  and  _200
REMARK   82  A    between atoms: _205  and  _207
REMARK   83  A    between atoms: _207  and  _208
REMARK   84  A    between atoms: _207  and  _210
REMARK   85  A    between atoms: _213  and  _215
REMARK   86  A    between atoms: _215  and  _216
REMARK   87  A    between atoms: _215  and  _218
REMARK   88  A    between atoms: _218  and  _219
REMARK   89  A    between atoms: _222  and  _224
REMARK   90  A    between atoms: _224  and  _225
REMARK   91  A    between atoms: _224  and  _227
REMARK   92  A    between atoms: _227  and  _228
REMARK   93  A    between atoms: _231  and  _233
REMARK   94  A    between atoms: _233  and  _234
REMARK   95  A    between atoms: _233  and  _236
REMARK   96  A    between atoms: _236  and  _237
REMARK   97  A    between atoms: _243  and  _245
REMARK   98  A    between atoms: _245  and  _246
REMARK   99  A    between atoms: _245  and  _248
REMARK  100  A    between atoms: _248  and  _249
REMARK  101  A    between atoms: _254  and  _256
REMARK  102  A    between atoms: _256  and  _257
REMARK  103  A    between atoms: _256  and  _259
REMARK  104  A    between atoms: _259  and  _260
REMARK  105  A    between atoms: _270  and  _272
REMARK  106  A    between atoms: _272  and  _273
REMARK  107  A    between atoms: _272  and  _275
REMARK  108  A    between atoms: _275  and  _276
REMARK  109  A    between atoms: _281  and  _282
REMARK  110  A    between atoms: _284  and  _286
REMARK  111  A    between atoms: _286  and  _287
REMARK  112  A    between atoms: _286  and  _289
REMARK  113  A    between atoms: _289  and  _290
REMARK  114  A    between atoms: _295  and  _297
REMARK  115  A    between atoms: _297  and  _298
REMARK  116  A    between atoms: _297  and  _300
REMARK  117  A    between atoms: _300  and  _301
REMARK  118  A    between atoms: _306  and  _308
REMARK  119  A    between atoms: _308  and  _309
REMARK  120  A    between atoms: _308  and  _311
REMARK  121  A    between atoms: _311  and  _312
REMARK  122  A    between atoms: _312  and  _313
REMARK  123  A    between atoms: _318  and  _320
REMARK  124  A    between atoms: _320  and  _321
REMARK  125  A    between atoms: _320  and  _323
REMARK  126  A    between atoms: _323  and  _324
REMARK  127  A    between atoms: _329  and  _330
REMARK  128  A    between atoms: _332  and  _334
REMARK  129  A    between atoms: _334  and  _335
REMARK  130  A    between atoms: _334  and  _337
REMARK  131  A    between atoms: _337  and  _338
REMARK  132  A    between atoms: _341  and  _343
REMARK  133  A    between atoms: _343  and  _344
REMARK  134  A    between atoms: _347  and  _349
REMARK  135  A    between atoms: _349  and  _350
REMARK  136  A    between atoms: _349  and  _352
REMARK  137  A    between atoms: _352  and  _353
REMARK  138  A    between atoms: _355  and  _357
REMARK  139  A    between atoms: _357  and  _358
REMARK  140  A    between atoms: _357  and  _360
REMARK  141  A    between atoms: _360  and  _361
REMARK  142  A    between atoms: _361  and  _362
REMARK  143  A    between atoms: _364  and  _366
REMARK  144  A    between atoms: _366  and  _367
REMARK  145  A    between atoms: _366  and  _369
REMARK  146  A    between atoms: _369  and  _370
REMARK  147  A    between atoms: _370  and  _371
REMARK  148  A    between atoms: _376  and  _378
REMARK  149  A    between atoms: _378  and  _379
REMARK  150  A    between atoms: _378  and  _381
REMARK  151  A    between atoms: _381  and  _382
REMARK  152  A    between atoms: _384  and  _386
REMARK  153  A    between atoms: _386  and  _387
REMARK  154  A    between atoms: _386  and  _389
REMARK  155  A    between atoms: _389  and  _390
REMARK  156  A    between atoms: _395  and  _396
REMARK  157  A    between atoms: _398  and  _400
REMARK  158  A    between atoms: _400  and  _401
REMARK  159  A    between atoms: _400  and  _403
REMARK  160  A    between atoms: _403  and  _404
REMARK  161  A    between atoms: _406  and  _408
REMARK  162  A    between atoms: _408  and  _409
REMARK  163  A    between atoms: _412  and  _414
REMARK  164  A    between atoms: _414  and  _415
REMARK  165  A    between atoms: _414  and  _417
REMARK  166  A    between atoms: _417  and  _418
REMARK  167  A    between atoms: _428  and  _430
REMARK  168  A    between atoms: _430  and  _431
REMARK  169  A    between atoms: _430  and  _433
REMARK  170  A    between atoms: _433  and  _434
REMARK  171  A    between atoms: _434  and  _435
REMARK  172  A    between atoms: _440  and  _442
REMARK  173  A    between atoms: _442  and  _443
REMARK  174  A    between atoms: _442  and  _445
REMARK  175  A    between atoms: _448  and  _450
REMARK  176  A    between atoms: _450  and  _451
REMARK  177  A    between atoms: _450  and  _453
REMARK  178  A    between atoms: _453  and  _454
REMARK  179  A    between atoms: _457  and  _459
REMARK  180  A    between atoms: _459  and  _460
REMARK  181  A    between atoms: _459  and  _462
REMARK  182  A    between atoms: _462  and  _463
REMARK  183  A    between atoms: _468  and  _469
REMARK  184  A    between atoms: _471  and  _473
REMARK  185  A    between atoms: _473  and  _474
REMARK  186  A    between atoms: _473  and  _476
REMARK  187  A    between atoms: _479  and  _481
REMARK  188  A    between atoms: _481  and  _482
REMARK  189  A    between atoms: _481  and  _484
REMARK  190  A    between atoms: _484  and  _485
REMARK  191  A    between atoms: _491  and  _493
REMARK  192  A    between atoms: _493  and  _494
REMARK  193  A    between atoms: _493  and  _496
REMARK  194  A    between atoms: _496  and  _497
REMARK  195  A    between atoms: _497  and  _498
REMARK  196  A    between atoms: _503  and  _505
REMARK  197  A    between atoms: _505  and  _506
REMARK  198  A    between atoms: _505  and  _508
REMARK  199  A    between atoms: _508  and  _509
REMARK  200  A    between atoms: _511  and  _513
REMARK  201  A    between atoms: _513  and  _514
REMARK  202  A    between atoms: _513  and  _516
REMARK  203  A    between atoms: _516  and  _517
REMARK  204  A    between atoms: _522  and  _524
REMARK  205  A    between atoms: _524  and  _525
REMARK  206  A    between atoms: _524  and  _527
REMARK  207  A    between atoms: _527  and  _528
REMARK  208  A    between atoms: _538  and  _540
REMARK  209  A    between atoms: _540  and  _541
REMARK  210  A    between atoms: _540  and  _543
REMARK  211  A    between atoms: _543  and  _544
REMARK  212  A    between atoms: _547  and  _549
REMARK  213  A    between atoms: _549  and  _550
REMARK  214  A    between atoms: _549  and  _552
REMARK  215  A    between atoms: _552  and  _553
REMARK  216  A    between atoms: _558  and  _559
REMARK  217  A    between atoms: _561  and  _563
REMARK  218  A    between atoms: _563  and  _564
REMARK  219  A    between atoms: _563  and  _566
REMARK  220  A    between atoms: _566  and  _567
REMARK  221  A    between atoms: _570  and  _572
REMARK  222  A    between atoms: _572  and  _573
REMARK  223  A    between atoms: _572  and  _575
REMARK  224  A    between atoms: _575  and  _576
REMARK  225  A    between atoms: _576  and  _577
REMARK  226  A    between atoms: _580  and  _582
REMARK  227  A    between atoms: _582  and  _583
REMARK  228  A    between atoms: _582  and  _585
REMARK  229  A    between atoms: _585  and  _586
REMARK  230  A    between atoms: _591  and  _593
REMARK  231  A    between atoms: _593  and  _594
REMARK  232  A    between atoms: _596  and  _598
REMARK  233  A    between atoms: _598  and  _599
REMARK  234  A    between atoms: _598  and  _601
REMARK  235  A    between atoms: _601  and  _602
REMARK  236  A    between atoms: _602  and  _603
REMARK  237  A    between atoms: _605  and  _607
REMARK  238  A    between atoms: _607  and  _608
REMARK  239  A    between atoms: _607  and  _610
REMARK  240  A    between atoms: _610  and  _611
REMARK  241  A    between atoms: _614  and  _616
REMARK  242  A    between atoms: _616  and  _617
REMARK  243  A    between atoms: _616  and  _619
REMARK  244  A    between atoms: _619  and  _620
REMARK  245  A    between atoms: _630  and  _632
REMARK  246  A    between atoms: _632  and  _633
REMARK  247  A    between atoms: _632  and  _635
REMARK  248  A    between atoms: _635  and  _636
REMARK  249  A    between atoms: _638  and  _640
REMARK  250  A    between atoms: _640  and  _641
REMARK  251  A    between atoms: _640  and  _643
REMARK  252  A    between atoms: _643  and  _644
REMARK  253  A    between atoms: _649  and  _651
REMARK  254  A    between atoms: _651  and  _652
REMARK  255  A    between atoms: _651  and  _654
REMARK  256  A    between atoms: _654  and  _655
REMARK  257  A    between atoms: _661  and  _663
REMARK  258  A    between atoms: _663  and  _664
REMARK  259  A    between atoms: _663  and  _666
REMARK  260  A    between atoms: _666  and  _667
REMARK  261  A    between atoms: _667  and  _668
REMARK  262  A    between atoms: _671  and  _673
REMARK  263  A    between atoms: _673  and  _674
REMARK  264  A    between atoms: _673  and  _676
REMARK  265  A    between atoms: _676  and  _677
REMARK  266  A    between atoms: _687  and  _689
REMARK  267  A    between atoms: _689  and  _690
REMARK  268  A    between atoms: _689  and  _692
REMARK  269  A    between atoms: _692  and  _693
REMARK  270  A    between atoms: _696  and  _698
REMARK  271  A    between atoms: _698  and  _699
REMARK  272  A    between atoms: _698  and  _701
REMARK  273  A    between atoms: _701  and  _702
REMARK  274  A    between atoms: _704  and  _706
REMARK  275  A    between atoms: _706  and  _707
REMARK  276  A    between atoms: _706  and  _709
REMARK  277  A    between atoms: _709  and  _710
REMARK  278  A    between atoms: _712  and  _714
REMARK  279  A    between atoms: _714  and  _715
REMARK  280  A    between atoms: _714  and  _717
REMARK  281  A    between atoms: _717  and  _718
REMARK                            x       y       z     vdW  Elec       q    Type
REMARK                         _______ _______ _______ _____ _____    ______ ____
ROOT
ATOM      1  CA  TYR A   3       6.594   8.069  42.010  0.00  0.00    +0.153 C 
ENDROOT
BRANCH   1   3
ATOM      2  C   GLN A   2       8.931   7.655  41.552  0.00  0.00    +0.241 C 
ATOM      3  N   TYR A   3       7.856   7.391  42.280  0.00  0.00    -0.297 N 
ATOM      4  H   TYR A   3       7.913   6.695  43.050  0.00  0.00    +0.150 HD
ATOM      5  O   GLN A   2       8.911   8.399  40.585  0.00  0.00    -0.273 OA
BRANCH   2   6
ATOM      6  CA  GLN A   2      10.202   6.927  41.930  0.00  0.00    +0.149 C 
BRANCH   6   9
ATOM      7  C   ASN A   1      10.734   4.806  40.836  0.00  0.00    +0.239 C 
ATOM      8  O   ASN A   1      10.377   4.142  41.808  0.00  0.00    -0.274 OA
ATOM      9  N   GLN A   2      10.613   6.125  40.767  0.00  0.00    -0.297 N 
ATOM     10  H   GLN A   2      10.814   6.605  39.867  0.00  0.00    +0.150 HD
BRANCH   7  11
ATOM     11  CA  ASN A   1      11.338   4.111  39.621  0.00  0.00    +0.154 C 
BRANCH  11  12
ATOM     12  N   ASN A   1      12.637   3.583  39.994  0.00  0.00    -0.238 NA
ATOM     13  H   ASN A   1      12.683   2.611  40.361  0.00  0.00    +0.142 HD
ENDBRANCH  11  12
BRANCH  11  14
ATOM     14  CB  ASN A   1      10.420   2.973  39.168  0.00  0.00    +0.111 C 
BRANCH  14  15
ATOM     15  CG  ASN A   1      10.850   2.380  37.842  0.00  0.00    +0.221 C 
ATOM     16  ND2 ASN A   1      10.158   1.334  37.417  0.00  0.00    -0.329 N 
ATOM     17 HD21 ASN A   1       9.357   0.978  37.977  0.00  0.00    +0.145 HD
ATOM     18 HD22 ASN A   1      10.416   0.868  36.523  0.00  0.00    +0.145 HD
ATOM     19  OD1 ASN A   1      11.814   2.847  37.216  0.00  0.00    -0.275 OA
ENDBRANCH  14  15
ENDBRANCH  11  14
ENDBRANCH   7  11
ENDBRANCH   6   9
BRANCH   6  20
ATOM     20  CB  GLN A   2      11.311   7.921  42.291  0.00  0.00    +0.039 C 
BRANCH  20  21
ATOM     21  CG  GLN A   2      11.380   8.242  43.774  0.00  0.00    +0.087 C 
BRANCH  21  22
ATOM     22  CD  GLN A   2      10.131   8.973  44.288  0.00  0.00    +0.219 C 
ATOM     23  NE2 GLN A   2       9.516   8.399  45.314  0.00  0.00    -0.329 N 
ATOM     24 HE21 GLN A   2       8.668   8.839  45.724  0.00  0.00    +0.145 HD
ATOM     25 HE22 GLN A   2       9.882   7.509  45.708  0.00  0.00    +0.145 HD
ATOM     26  OE1 GLN A   2       9.734  10.038  43.780  0.00  0.00    -0.275 OA
ENDBRANCH  21  22
ENDBRANCH  20  21
ENDBRANCH   6  20
ENDBRANCH   2   6
ENDBRANCH   1   3
BRANCH   1  27
ATOM     27  C   TYR A   3       6.025   8.845  43.196  0.00  0.00    +0.241 C 
ATOM     28  N   THR A   4       6.073   8.259  44.389  0.00  0.00    -0.295 N 
ATOM     29  H   THR A   4       6.692   7.441  44.560  0.00  0.00    +0.150 HD
ATOM     30  O   TYR A   3       5.466   9.919  43.004  0.00  0.00    -0.273 OA
BRANCH  28  31
ATOM     31  CA  THR A   4       5.226   8.803  45.456  0.00  0.00    +0.176 C 
BRANCH  31  32
ATOM     32  C   THR A   4       5.824   8.575  46.853  0.00  0.00    +0.243 C 
ATOM     33  N   ALA A   5       5.062   8.926  47.885  0.00  0.00    -0.297 N 
ATOM     34  H   ALA A   5       4.097   9.265  47.696  0.00  0.00    +0.150 HD
ATOM     35  O   THR A   4       6.957   8.092  46.977  0.00  0.00    -0.273 OA
BRANCH  33  36
ATOM     36  CA  ALA A   5       5.518   8.858  49.279  0.00  0.00    +0.149 C 
ATOM     37  CB  ALA A   5       6.208  10.173  49.679  0.00  0.00    +0.031 C 
BRANCH  36  38
ATOM     38  C   ALA A   5       4.314   8.592  50.191  0.00  0.00    +0.241 C 
ATOM     39  N   SER A   6       4.575   8.007  51.364  0.00  0.00    -0.296 N 
ATOM     40  H   SER A   6       5.556   7.733  51.575  0.00  0.00    +0.150 HD
ATOM     41  O   ALA A   5       3.177   8.909  49.826  0.00  0.00    -0.273 OA
BRANCH  39  42
ATOM     42  CA  SER A   6       3.530   7.732  52.376  0.00  0.00    +0.166 C 
BRANCH  42  43
ATOM     43  C   SER A   6       4.118   8.130  53.698  0.00  0.00    +0.229 C 
ATOM     44  O   SER A   6       5.343   8.102  53.848  0.00  0.00    -0.286 OA
ENDBRANCH  42  43
BRANCH  42  45
ATOM     45  CB  SER A   6       3.250   6.211  52.479  0.00  0.00    +0.165 C 
BRANCH  45  46
ATOM     46  OG  SER A   6       2.904   5.655  51.237  0.00  0.00    -0.380 OA
ATOM     47  H   SER A   6       3.647   5.791  50.597  0.00  0.00    +0.211 HD
ENDBRANCH  45  46
ENDBRANCH  42  45
ENDBRANCH  39  42
ENDBRANCH  36  38
ENDBRANCH  33  36
ENDBRANCH  31  32
BRANCH  31  48
ATOM     48  CB  THR A   4       3.731   8.273  45.303  0.00  0.00    +0.137 C 
ATOM     49  CG2 THR A   4       3.603   6.783  45.573  0.00  0.00    +0.034 C 
BRANCH  48  50
ATOM     50  OG1 THR A   4       2.859   8.972  46.201  0.00  0.00    -0.382 OA
ATOM     51  HG1 THR A   4       2.881   9.940  45.994  0.00  0.00    +0.210 HD
ENDBRANCH  48  50
ENDBRANCH  31  48
ENDBRANCH  28  31
ENDBRANCH   1  27
BRANCH   1  52
ATOM     52  CB  TYR A   3       5.516   7.102  41.544  0.00  0.00    +0.055 C 
BRANCH  52  53
ATOM     53  CG  TYR A   3       5.737   6.543  40.149  0.00  0.00    -0.020 A 
ATOM     54  CD2 TYR A   3       6.431   5.341  39.944  0.00  0.00    -0.001 A 
ATOM     55  CE2 TYR A   3       6.612   4.834  38.615  0.00  0.00    +0.036 A 
ATOM     56  CZ  TYR A   3       6.101   5.562  37.540  0.00  0.00    +0.134 A 
ATOM     57  CE1 TYR A   3       5.432   6.744  37.748  0.00  0.00    +0.036 A 
ATOM     58  CD1 TYR A   3       5.244   7.219  39.035  0.00  0.00    -0.001 A 
BRANCH  56  59
ATOM     59  OH  TYR A   3       6.246   5.107  36.239  0.00  0.00    -0.506 OA
ATOM     60  HH  TYR A   3       6.744   4.252  36.243  0.00  0.00    +0.292 HD
ENDBRANCH  56  59
ENDBRANCH  52  53
ENDBRANCH   1  52
TORSDOF 24
REMARK  Name = ../refined-set-2016/3f5k/3f5k_pocket.pdb
REMARK  281 active torsions:
REMARK  status: ('A' for Active; 'I' for Inactive)
REMARK    1  A    between atoms: _1  and  _3
REMARK    2  A    between atoms: _3  and  _4
REMARK    3  A    between atoms: _3  and  _6
REMARK    4  A    between atoms: _9  and  _11
REMARK    5  A    between atoms: _11  and  _12
REMARK    6  A    between atoms: _11  and  _14
REMARK    7  A    between atoms: _14  and  _15
REMARK    8  A    between atoms: _18  and  _20
REMARK    9  A    between atoms: _20  and  _21
REMARK   10  A    between atoms: _20  and  _23
REMARK   11  A    between atoms: _23  and  _24
REMARK   12  A    between atoms: _26  and  _28
REMARK   13  A    between atoms: _28  and  _29
REMARK   14  A    between atoms: _32  and  _34
REMARK   15  A    between atoms: _34  and  _35
REMARK   16  A    between atoms: _34  and  _37
REMARK   17  A    between atoms: _37  and  _38
REMARK   18  A    between atoms: _38  and  _39
REMARK   19  A    between atoms: _44  and  _46
REMARK   20  A    between atoms: _46  and  _47
REMARK   21  A    between atoms: _46  and  _49
REMARK   22  A    between atoms: _49  and  _50
REMARK   23  A    between atoms: _50  and  _51
REMARK   24  A    between atoms: _51  and  _52
REMARK   25  A    between atoms: _61  and  _63
REMARK   26  A    between atoms: _63  and  _64
REMARK   27  A    between atoms: _63  and  _66
REMARK   28  A    between atoms: _66  and  _67
REMARK   29  A    between atoms: _72  and  _74
REMARK   30  A    between atoms: _74  and  _75
REMARK   31  A    between atoms: _74  and  _77
REMARK   32  A    between atoms: _77  and  _78
REMARK   33  A    between atoms: _83  and  _85
REMARK   34  A    between atoms: _85  and  _86
REMARK   35  A    between atoms: _85  and  _88
REMARK   36  A    between atoms: _88  and  _89
REMARK   37  A    between atoms: _94  and  _95
REMARK   38  A    between atoms: _97  and  _99
REMARK   39  A    between atoms: _99  and  _100
REMARK   40  A    between atoms: _99  and  _102
REMARK   41  A    between atoms: _102  and  _103
REMARK   42  A    between atoms: _108  and  _110
REMARK   43  A    between atoms: _110  and  _111
REMARK   44  A    between atoms: _110  and  _113
REMARK   45  A    between atoms: _113  and  _114
REMARK   46  A    between atoms: _114  and  _115
REMARK   47  A    between atoms: _120  and  _122
REMARK   48  A    between atoms: _122  and  _123
REMARK   49  A    between atoms: _122  and  _125
REMARK   50  A    between atoms: _125  and  _126
REMARK   51  A    between atoms: _126  and  _127
REMARK   52  A    between atoms: _127  and  _128
REMARK   53  A    between atoms: _137  and  _139
REMARK   54  A    between atoms: _139  and  _140
REMARK   55  A    between atoms: _139  and  _142
REMARK   56  A    between atoms: _142  and  _143
REMARK   57  A    between atoms: _146  and  _148
REMARK   58  A    between atoms: _148  and  _149
REMARK   59  A    between atoms: _148  and  _151
REMARK   60  A    between atoms: _151  and  _152
REMARK   61  A    between atoms: _155  and  _157
REMARK   62  A    between atoms: _157  and  _158
REMARK   63  A    between atoms: _157  and  _160
REMARK   64  A    between atoms: _160  and  _161
REMARK   65  A    between atoms: _164  and  _166
REMARK   66  A    between atoms: _166  and  _167
REMARK   67  A    between atoms: _166  and  _169
REMARK   68  A    between atoms: _169  and  _170
REMARK   69  A    between atoms: _173  and  _175
REMARK   70  A    between atoms: _175  and  _176
REMARK   71  A    between atoms: _175  and  _178
REMARK   72  A    between atoms: _178  and  _179
REMARK   73  A    between atoms: _179  and  _180
REMARK   74  A    between atoms: _185  and  _187
REMARK   75  A    between atoms: _187  and  _188
REMARK   76  A    between atoms: _187  and  _190
REMARK   77  A    between atoms: _190  and  _191
REMARK   78  A    between atoms: _194  and  _196
REMARK   79  A    between atoms: _196  and  _197
REMARK   80  A    between atoms: _196  and  _199
REMARK   81  A    between atoms: _199  and  _200
REMARK   82  A    between atoms: _205  and  _207
REMARK   83  A    between atoms: _207  and  _208
REMARK   84  A    between atoms: _207  and  _210
REMARK   85  A    between atoms: _213  and  _215
REMARK   86  A    between atoms: _215  and  _216
REMARK   87  A    between atoms: _215  and  _218
REMARK   88  A    between atoms: _218  and  _219
REMARK   89  A    between atoms: _222  and  _224
REMARK   90  A    between atoms: _224  and  _225
REMARK   91  A    between atoms: _224  and  _227
REMARK   92  A    between atoms: _227  and  _228
REMARK   93  A    between atoms: _231  and  _233
REMARK   94  A    between atoms: _233  and  _234
REMARK   95  A    between atoms: _233  and  _236
REMARK   96  A    between atoms: _236  and  _237
REMARK   97  A    between atoms: _243  and  _245
REMARK   98  A    between atoms: _245  and  _246
REMARK   99  A    between atoms: _245  and  _248
REMARK  100  A    between atoms: _248  and  _249
REMARK  101  A    between atoms: _254  and  _256
REMARK  102  A    between atoms: _256  and  _257
REMARK  103  A    between atoms: _256  and  _259
REMARK  104  A    between atoms: _259  and  _260
REMARK  105  A    between atoms: _270  and  _272
REMARK  106  A    between atoms: _272  and  _273
REMARK  107  A    between atoms: _272  and  _275
REMARK  108  A    between atoms: _275  and  _276
REMARK  109  A    between atoms: _281  and  _282
REMARK  110  A    between atoms: _284  and  _286
REMARK  111  A    between atoms: _286  and  _287
REMARK  112  A    between atoms: _286  and  _289
REMARK  113  A    between atoms: _289  and  _290
REMARK  114  A    between atoms: _295  and  _297
REMARK  115  A    between atoms: _297  and  _298
REMARK  116  A    between atoms: _297  and  _300
REMARK  117  A    between atoms: _300  and  _301
REMARK  118  A    between atoms: _306  and  _308
REMARK  119  A    between atoms: _308  and  _309
REMARK  120  A    between atoms: _308  and  _311
REMARK  121  A    between atoms: _311  and  _312
REMARK  122  A    between atoms: _312  and  _313
REMARK  123  A    between atoms: _318  and  _320
REMARK  124  A    between atoms: _320  and  _321
REMARK  125  A    between atoms: _320  and  _323
REMARK  126  A    between atoms: _323  and  _324
REMARK  127  A    between atoms: _329  and  _330
REMARK  128  A    between atoms: _332  and  _334
REMARK  129  A    between atoms: _334  and  _335
REMARK  130  A    between atoms: _334  and  _337
REMARK  131  A    between atoms: _337  and  _338
REMARK  132  A    between atoms: _341  and  _343
REMARK  133  A    between atoms: _343  and  _344
REMARK  134  A    between atoms: _347  and  _349
REMARK  135  A    between atoms: _349  and  _350
REMARK  136  A    between atoms: _349  and  _352
REMARK  137  A    between atoms: _352  and  _353
REMARK  138  A    between atoms: _355  and  _357
REMARK  139  A    between atoms: _357  and  _358
REMARK  140  A    between atoms: _357  and  _360
REMARK  141  A    between atoms: _360  and  _361
REMARK  142  A    between atoms: _361  and  _362
REMARK  143  A    between atoms: _364  and  _366
REMARK  144  A    between atoms: _366  and  _367
REMARK  145  A    between atoms: _366  and  _369
REMARK  146  A    between atoms: _369  and  _370
REMARK  147  A    between atoms: _370  and  _371
REMARK  148  A    between atoms: _376  and  _378
REMARK  149  A    between atoms: _378  and  _379
REMARK  150  A    between atoms: _378  and  _381
REMARK  151  A    between atoms: _381  and  _382
REMARK  152  A    between atoms: _384  and  _386
REMARK  153  A    between atoms: _386  and  _387
REMARK  154  A    between atoms: _386  and  _389
REMARK  155  A    between atoms: _389  and  _390
REMARK  156  A    between atoms: _395  and  _396
REMARK  157  A    between atoms: _398  and  _400
REMARK  158  A    between atoms: _400  and  _401
REMARK  159  A    between atoms: _400  and  _403
REMARK  160  A    between atoms: _403  and  _404
REMARK  161  A    between atoms: _406  and  _408
REMARK  162  A    between atoms: _408  and  _409
REMARK  163  A    between atoms: _412  and  _414
REMARK  164  A    between atoms: _414  and  _415
REMARK  165  A    between atoms: _414  and  _417
REMARK  166  A    between atoms: _417  and  _418
REMARK  167  A    between atoms: _428  and  _430
REMARK  168  A    between atoms: _430  and  _431
REMARK  169  A    between atoms: _430  and  _433
REMARK  170  A    between atoms: _433  and  _434
REMARK  171  A    between atoms: _434  and  _435
REMARK  172  A    between atoms: _440  and  _442
REMARK  173  A    between atoms: _442  and  _443
REMARK  174  A    between atoms: _442  and  _445
REMARK  175  A    between atoms: _448  and  _450
REMARK  176  A    between atoms: _450  and  _451
REMARK  177  A    between atoms: _450  and  _453
REMARK  178  A    between atoms: _453  and  _454
REMARK  179  A    between atoms: _457  and  _459
REMARK  180  A    between atoms: _459  and  _460
REMARK  181  A    between atoms: _459  and  _462
REMARK  182  A    between atoms: _462  and  _463
REMARK  183  A    between atoms: _468  and  _469
REMARK  184  A    between atoms: _471  and  _473
REMARK  185  A    between atoms: _473  and  _474
REMARK  186  A    between atoms: _473  and  _476
REMARK  187  A    between atoms: _479  and  _481
REMARK  188  A    between atoms: _481  and  _482
REMARK  189  A    between atoms: _481  and  _484
REMARK  190  A    between atoms: _484  and  _485
REMARK  191  A    between atoms: _491  and  _493
REMARK  192  A    between atoms: _493  and  _494
REMARK  193  A    between atoms: _493  and  _496
REMARK  194  A    between atoms: _496  and  _497
REMARK  195  A    between atoms: _497  and  _498
REMARK  196  A    between atoms: _503  and  _505
REMARK  197  A    between atoms: _505  and  _506
REMARK  198  A    between atoms: _505  and  _508
REMARK  199  A    between atoms: _508  and  _509
REMARK  200  A    between atoms: _511  and  _513
REMARK  201  A    between atoms: _513  and  _514
REMARK  202  A    between atoms: _513  and  _516
REMARK  203  A    between atoms: _516  and  _517
REMARK  204  A    between atoms: _522  and  _524
REMARK  205  A    between atoms: _524  and  _525
REMARK  206  A    between atoms: _524  and  _527
REMARK  207  A    between atoms: _527  and  _528
REMARK  208  A    between atoms: _538  and  _540
REMARK  209  A    between atoms: _540  and  _541
REMARK  210  A    between atoms: _540  and  _543
REMARK  211  A    between atoms: _543  and  _544
REMARK  212  A    between atoms: _547  and  _549
REMARK  213  A    between atoms: _549  and  _550
REMARK  214  A    between atoms: _549  and  _552
REMARK  215  A    between atoms: _552  and  _553
REMARK  216  A    between atoms: _558  and  _559
REMARK  217  A    between atoms: _561  and  _563
REMARK  218  A    between atoms: _563  and  _564
REMARK  219  A    between atoms: _563  and  _566
REMARK  220  A    between atoms: _566  and  _567
REMARK  221  A    between atoms: _570  and  _572
REMARK  222  A    between atoms: _572  and  _573
REMARK  223  A    between atoms: _572  and  _575
REMARK  224  A    between atoms: _575  and  _576
REMARK  225  A    between atoms: _576  and  _577
REMARK  226  A    between atoms: _580  and  _582
REMARK  227  A    between atoms: _582  and  _583
REMARK  228  A    between atoms: _582  and  _585
REMARK  229  A    between atoms: _585  and  _586
REMARK  230  A    between atoms: _591  and  _593
REMARK  231  A    between atoms: _593  and  _594
REMARK  232  A    between atoms: _596  and  _598
REMARK  233  A    between atoms: _598  and  _599
REMARK  234  A    between atoms: _598  and  _601
REMARK  235  A    between atoms: _601  and  _602
REMARK  236  A    between atoms: _602  and  _603
REMARK  237  A    between atoms: _605  and  _607
REMARK  238  A    between atoms: _607  and  _608
REMARK  239  A    between atoms: _607  and  _610
REMARK  240  A    between atoms: _610  and  _611
REMARK  241  A    between atoms: _614  and  _616
REMARK  242  A    between atoms: _616  and  _617
REMARK  243  A    between atoms: _616  and  _619
REMARK  244  A    between atoms: _619  and  _620
REMARK  245  A    between atoms: _630  and  _632
REMARK  246  A    between atoms: _632  and  _633
REMARK  247  A    between atoms: _632  and  _635
REMARK  248  A    between atoms: _635  and  _636
REMARK  249  A    between atoms: _638  and  _640
REMARK  250  A    between atoms: _640  and  _641
REMARK  251  A    between atoms: _640  and  _643
REMARK  252  A    between atoms: _643  and  _644
REMARK  253  A    between atoms: _649  and  _651
REMARK  254  A    between atoms: _651  and  _652
REMARK  255  A    between atoms: _651  and  _654
REMARK  256  A    between atoms: _654  and  _655
REMARK  257  A    between atoms: _661  and  _663
REMARK  258  A    between atoms: _663  and  _664
REMARK  259  A    between atoms: _663  and  _666
REMARK  260  A    between atoms: _666  and  _667
REMARK  261  A    between atoms: _667  and  _668
REMARK  262  A    between atoms: _671  and  _673
REMARK  263  A    between atoms: _673  and  _674
REMARK  264  A    between atoms: _673  and  _676
REMARK  265  A    between atoms: _676  and  _677
REMARK  266  A    between atoms: _687  and  _689
REMARK  267  A    between atoms: _689  and  _690
REMARK  268  A    between atoms: _689  and  _692
REMARK  269  A    between atoms: _692  and  _693
REMARK  270  A    between atoms: _696  and  _698
REMARK  271  A    between atoms: _698  and  _699
REMARK  272  A    between atoms: _698  and  _701
REMARK  273  A    between atoms: _701  and  _702
REMARK  274  A    between atoms: _704  and  _706
REMARK  275  A    between atoms: _706  and  _707
REMARK  276  A    between atoms: _706  and  _709
REMARK  277  A    between atoms: _709  and  _710
REMARK  278  A    between atoms: _712  and  _714
REMARK  279  A    between atoms: _714  and  _715
REMARK  280  A    between atoms: _714  and  _717
REMARK  281  A    between atoms: _717  and  _718
REMARK                            x       y       z     vdW  Elec       q    Type
REMARK                         _______ _______ _______ _____ _____    ______ ____
ROOT
ATOM      1  CA  MET A   1       4.346   5.422  58.295  0.00  0.00    +0.134 C 
ENDROOT
BRANCH   1   2
ATOM      2  N   MET A   1       4.379   6.719  57.658  0.00  0.00    -0.239 NA
ATOM      3  H   MET A   1       5.061   7.429  57.994  0.00  0.00    +0.142 HD
ENDBRANCH   1   2
BRANCH   1   4
ATOM      4  C   MET A   1       4.166   5.578  59.799  0.00  0.00    +0.224 C 
ATOM      5  O   MET A   1       4.848   6.372  60.429  0.00  0.00    -0.287 OA
ENDBRANCH   1   4
BRANCH   1   6
ATOM      6  CB  MET A   1       5.646   4.645  58.036  0.00  0.00    +0.037 C 
BRANCH   6   7
ATOM      7  CG  MET A   1       5.746   4.041  56.636  0.00  0.00    +0.059 C 
BRANCH   7   8
ATOM      8  SD  MET A   1       4.604   2.649  56.487  0.00  0.00    -0.139 S 
ATOM      9  CE  MET A   1       3.771   3.199  55.023  0.00  0.00    +0.069 C 
ENDBRANCH   7   8
ENDBRANCH   6   7
ENDBRANCH   1   6
TORSDOF 5
REMARK  Name = ../refined-set-2016/3f5k/3f5k_pocket.pdb
REMARK  281 active torsions:
REMARK  status: ('A' for Active; 'I' for Inactive)
REMARK    1  A    between atoms: _1  and  _3
REMARK    2  A    between atoms: _3  and  _4
REMARK    3  A    between atoms: _3  and  _6
REMARK    4  A    between atoms: _9  and  _11
REMARK    5  A    between atoms: _11  and  _12
REMARK    6  A    between atoms: _11  and  _14
REMARK    7  A    between atoms: _14  and  _15
REMARK    8  A    between atoms: _18  and  _20
REMARK    9  A    between atoms: _20  and  _21
REMARK   10  A    between atoms: _20  and  _23
REMARK   11  A    between atoms: _23  and  _24
REMARK   12  A    between atoms: _26  and  _28
REMARK   13  A    between atoms: _28  and  _29
REMARK   14  A    between atoms: _32  and  _34
REMARK   15  A    between atoms: _34  and  _35
REMARK   16  A    between atoms: _34  and  _37
REMARK   17  A    between atoms: _37  and  _38
REMARK   18  A    between atoms: _38  and  _39
REMARK   19  A    between atoms: _44  and  _46
REMARK   20  A    between atoms: _46  and  _47
REMARK   21  A    between atoms: _46  and  _49
REMARK   22  A    between atoms: _49  and  _50
REMARK   23  A    between atoms: _50  and  _51
REMARK   24  A    between atoms: _51  and  _52
REMARK   25  A    between atoms: _61  and  _63
REMARK   26  A    between atoms: _63  and  _64
REMARK   27  A    between atoms: _63  and  _66
REMARK   28  A    between atoms: _66  and  _67
REMARK   29  A    between atoms: _72  and  _74
REMARK   30  A    between atoms: _74  and  _75
REMARK   31  A    between atoms: _74  and  _77
REMARK   32  A    between atoms: _77  and  _78
REMARK   33  A    between atoms: _83  and  _85
REMARK   34  A    between atoms: _85  and  _86
REMARK   35  A    between atoms: _85  and  _88
REMARK   36  A    between atoms: _88  and  _89
REMARK   37  A    between atoms: _94  and  _95
REMARK   38  A    between atoms: _97  and  _99
REMARK   39  A    between atoms: _99  and  _100
REMARK   40  A    between atoms: _99  and  _102
REMARK   41  A    between atoms: _102  and  _103
REMARK   42  A    between atoms: _108  and  _110
REMARK   43  A    between atoms: _110  and  _111
REMARK   44  A    between atoms: _110  and  _113
REMARK   45  A    between atoms: _113  and  _114
REMARK   46  A    between atoms: _114  and  _115
REMARK   47  A    between atoms: _120  and  _122
REMARK   48  A    between atoms: _122  and  _123
REMARK   49  A    between atoms: _122  and  _125
REMARK   50  A    between atoms: _125  and  _126
REMARK   51  A    between atoms: _126  and  _127
REMARK   52  A    between atoms: _127  and  _128
REMARK   53  A    between atoms: _137  and  _139
REMARK   54  A    between atoms: _139  and  _140
REMARK   55  A    between atoms: _139  and  _142
REMARK   56  A    between atoms: _142  and  _143
REMARK   57  A    between atoms: _146  and  _148
REMARK   58  A    between atoms: _148  and  _149
REMARK   59  A    between atoms: _148  and  _151
REMARK   60  A    between atoms: _151  and  _152
REMARK   61  A    between atoms: _155  and  _157
REMARK   62  A    between atoms: _157  and  _158
REMARK   63  A    between atoms: _157  and  _160
REMARK   64  A    between atoms: _160  and  _161
REMARK   65  A    between atoms: _164  and  _166
REMARK   66  A    between atoms: _166  and  _167
REMARK   67  A    between atoms: _166  and  _169
REMARK   68  A    between atoms: _169  and  _170
REMARK   69  A    between atoms: _173  and  _175
REMARK   70  A    between atoms: _175  and  _176
REMARK   71  A    between atoms: _175  and  _178
REMARK   72  A    between atoms: _178  and  _179
REMARK   73  A    between atoms: _179  and  _180
REMARK   74  A    between atoms: _185  and  _187
REMARK   75  A    between atoms: _187  and  _188
REMARK   76  A    between atoms: _187  and  _190
REMARK   77  A    between atoms: _190  and  _191
REMARK   78  A    between atoms: _194  and  _196
REMARK   79  A    between atoms: _196  and  _197
REMARK   80  A    between atoms: _196  and  _199
REMARK   81  A    between atoms: _199  and  _200
REMARK   82  A    between atoms: _205  and  _207
REMARK   83  A    between atoms: _207  and  _208
REMARK   84  A    between atoms: _207  and  _210
REMARK   85  A    between atoms: _213  and  _215
REMARK   86  A    between atoms: _215  and  _216
REMARK   87  A    between atoms: _215  and  _218
REMARK   88  A    between atoms: _218  and  _219
REMARK   89  A    between atoms: _222  and  _224
REMARK   90  A    between atoms: _224  and  _225
REMARK   91  A    between atoms: _224  and  _227
REMARK   92  A    between atoms: _227  and  _228
REMARK   93  A    between atoms: _231  and  _233
REMARK   94  A    between atoms: _233  and  _234
REMARK   95  A    between atoms: _233  and  _236
REMARK   96  A    between atoms: _236  and  _237
REMARK   97  A    between atoms: _243  and  _245
REMARK   98  A    between atoms: _245  and  _246
REMARK   99  A    between atoms: _245  and  _248
REMARK  100  A    between atoms: _248  and  _249
REMARK  101  A    between atoms: _254  and  _256
REMARK  102  A    between atoms: _256  and  _257
REMARK  103  A    between atoms: _256  and  _259
REMARK  104  A    between atoms: _259  and  _260
REMARK  105  A    between atoms: _270  and  _272
REMARK  106  A    between atoms: _272  and  _273
REMARK  107  A    between atoms: _272  and  _275
REMARK  108  A    between atoms: _275  and  _276
REMARK  109  A    between atoms: _281  and  _282
REMARK  110  A    between atoms: _284  and  _286
REMARK  111  A    between atoms: _286  and  _287
REMARK  112  A    between atoms: _286  and  _289
REMARK  113  A    between atoms: _289  and  _290
REMARK  114  A    between atoms: _295  and  _297
REMARK  115  A    between atoms: _297  and  _298
REMARK  116  A    between atoms: _297  and  _300
REMARK  117  A    between atoms: _300  and  _301
REMARK  118  A    between atoms: _306  and  _308
REMARK  119  A    between atoms: _308  and  _309
REMARK  120  A    between atoms: _308  and  _311
REMARK  121  A    between atoms: _311  and  _312
REMARK  122  A    between atoms: _312  and  _313
REMARK  123  A    between atoms: _318  and  _320
REMARK  124  A    between atoms: _320  and  _321
REMARK  125  A    between atoms: _320  and  _323
REMARK  126  A    between atoms: _323  and  _324
REMARK  127  A    between atoms: _329  and  _330
REMARK  128  A    between atoms: _332  and  _334
REMARK  129  A    between atoms: _334  and  _335
REMARK  130  A    between atoms: _334  and  _337
REMARK  131  A    between atoms: _337  and  _338
REMARK  132  A    between atoms: _341  and  _343
REMARK  133  A    between atoms: _343  and  _344
REMARK  134  A    between atoms: _347  and  _349
REMARK  135  A    between atoms: _349  and  _350
REMARK  136  A    between atoms: _349  and  _352
REMARK  137  A    between atoms: _352  and  _353
REMARK  138  A    between atoms: _355  and  _357
REMARK  139  A    between atoms: _357  and  _358
REMARK  140  A    between atoms: _357  and  _360
REMARK  141  A    between atoms: _360  and  _361
REMARK  142  A    between atoms: _361  and  _362
REMARK  143  A    between atoms: _364  and  _366
REMARK  144  A    between atoms: _366  and  _367
REMARK  145  A    between atoms: _366  and  _369
REMARK  146  A    between atoms: _369  and  _370
REMARK  147  A    between atoms: _370  and  _371
REMARK  148  A    between atoms: _376  and  _378
REMARK  149  A    between atoms: _378  and  _379
REMARK  150  A    between atoms: _378  and  _381
REMARK  151  A    between atoms: _381  and  _382
REMARK  152  A    between atoms: _384  and  _386
REMARK  153  A    between atoms: _386  and  _387
REMARK  154  A    between atoms: _386  and  _389
REMARK  155  A    between atoms: _389  and  _390
REMARK  156  A    between atoms: _395  and  _396
REMARK  157  A    between atoms: _398  and  _400
REMARK  158  A    between atoms: _400  and  _401
REMARK  159  A    between atoms: _400  and  _403
REMARK  160  A    between atoms: _403  and  _404
REMARK  161  A    between atoms: _406  and  _408
REMARK  162  A    between atoms: _408  and  _409
REMARK  163  A    between atoms: _412  and  _414
REMARK  164  A    between atoms: _414  and  _415
REMARK  165  A    between atoms: _414  and  _417
REMARK  166  A    between atoms: _417  and  _418
REMARK  167  A    between atoms: _428  and  _430
REMARK  168  A    between atoms: _430  and  _431
REMARK  169  A    between atoms: _430  and  _433
REMARK  170  A    between atoms: _433  and  _434
REMARK  171  A    between atoms: _434  and  _435
REMARK  172  A    between atoms: _440  and  _442
REMARK  173  A    between atoms: _442  and  _443
REMARK  174  A    between atoms: _442  and  _445
REMARK  175  A    between atoms: _448  and  _450
REMARK  176  A    between atoms: _450  and  _451
REMARK  177  A    between atoms: _450  and  _453
REMARK  178  A    between atoms: _453  and  _454
REMARK  179  A    between atoms: _457  and  _459
REMARK  180  A    between atoms: _459  and  _460
REMARK  181  A    between atoms: _459  and  _462
REMARK  182  A    between atoms: _462  and  _463
REMARK  183  A    between atoms: _468  and  _469
REMARK  184  A    between atoms: _471  and  _473
REMARK  185  A    between atoms: _473  and  _474
REMARK  186  A    between atoms: _473  and  _476
REMARK  187  A    between atoms: _479  and  _481
REMARK  188  A    between atoms: _481  and  _482
REMARK  189  A    between atoms: _481  and  _484
REMARK  190  A    between atoms: _484  and  _485
REMARK  191  A    between atoms: _491  and  _493
REMARK  192  A    between atoms: _493  and  _494
REMARK  193  A    between atoms: _493  and  _496
REMARK  194  A    between atoms: _496  and  _497
REMARK  195  A    between atoms: _497  and  _498
REMARK  196  A    between atoms: _503  and  _505
REMARK  197  A    between atoms: _505  and  _506
REMARK  198  A    between atoms: _505  and  _508
REMARK  199  A    between atoms: _508  and  _509
REMARK  200  A    between atoms: _511  and  _513
REMARK  201  A    between atoms: _513  and  _514
REMARK  202  A    between atoms: _513  and  _516
REMARK  203  A    between atoms: _516  and  _517
REMARK  204  A    between atoms: _522  and  _524
REMARK  205  A    between atoms: _524  and  _525
REMARK  206  A    between atoms: _524  and  _527
REMARK  207  A    between atoms: _527  and  _528
REMARK  208  A    between atoms: _538  and  _540
REMARK  209  A    between atoms: _540  and  _541
REMARK  210  A    between atoms: _540  and  _543
REMARK  211  A    between atoms: _543  and  _544
REMARK  212  A    between atoms: _547  and  _549
REMARK  213  A    between atoms: _549  and  _550
REMARK  214  A    between atoms: _549  and  _552
REMARK  215  A    between atoms: _552  and  _553
REMARK  216  A    between atoms: _558  and  _559
REMARK  217  A    between atoms: _561  and  _563
REMARK  218  A    between atoms: _563  and  _564
REMARK  219  A    between atoms: _563  and  _566
REMARK  220  A    between atoms: _566  and  _567
REMARK  221  A    between atoms: _570  and  _572
REMARK  222  A    between atoms: _572  and  _573
REMARK  223  A    between atoms: _572  and  _575
REMARK  224  A    between atoms: _575  and  _576
REMARK  225  A    between atoms: _576  and  _577
REMARK  226  A    between atoms: _580  and  _582
REMARK  227  A    between atoms: _582  and  _583
REMARK  228  A    between atoms: _582  and  _585
REMARK  229  A    between atoms: _585  and  _586
REMARK  230  A    between atoms: _591  and  _593
REMARK  231  A    between atoms: _593  and  _594
REMARK  232  A    between atoms: _596  and  _598
REMARK  233  A    between atoms: _598  and  _599
REMARK  234  A    between atoms: _598  and  _601
REMARK  235  A    between atoms: _601  and  _602
REMARK  236  A    between atoms: _602  and  _603
REMARK  237  A    between atoms: _605  and  _607
REMARK  238  A    between atoms: _607  and  _608
REMARK  239  A    between atoms: _607  and  _610
REMARK  240  A    between atoms: _610  and  _611
REMARK  241  A    between atoms: _614  and  _616
REMARK  242  A    between atoms: _616  and  _617
REMARK  243  A    between atoms: _616  and  _619
REMARK  244  A    between atoms: _619  and  _620
REMARK  245  A    between atoms: _630  and  _632
REMARK  246  A    between atoms: _632  and  _633
REMARK  247  A    between atoms: _632  and  _635
REMARK  248  A    between atoms: _635  and  _636
REMARK  249  A    between atoms: _638  and  _640
REMARK  250  A    between atoms: _640  and  _641
REMARK  251  A    between atoms: _640  and  _643
REMARK  252  A    between atoms: _643  and  _644
REMARK  253  A    between atoms: _649  and  _651
REMARK  254  A    between atoms: _651  and  _652
REMARK  255  A    between atoms: _651  and  _654
REMARK  256  A    between atoms: _654  and  _655
REMARK  257  A    between atoms: _661  and  _663
REMARK  258  A    between atoms: _663  and  _664
REMARK  259  A    between atoms: _663  and  _666
REMARK  260  A    between atoms: _666  and  _667
REMARK  261  A    between atoms: _667  and  _668
REMARK  262  A    between atoms: _671  and  _673
REMARK  263  A    between atoms: _673  and  _674
REMARK  264  A    between atoms: _673  and  _676
REMARK  265  A    between atoms: _676  and  _677
REMARK  266  A    between atoms: _687  and  _689
REMARK  267  A    between atoms: _689  and  _690
REMARK  268  A    between atoms: _689  and  _692
REMARK  269  A    between atoms: _692  and  _693
REMARK  270  A    between atoms: _696  and  _698
REMARK  271  A    between atoms: _698  and  _699
REMARK  272  A    between atoms: _698  and  _701
REMARK  273  A    between atoms: _701  and  _702
REMARK  274  A    between atoms: _704  and  _706
REMARK  275  A    between atoms: _706  and  _707
REMARK  276  A    between atoms: _706  and  _709
REMARK  277  A    between atoms: _709  and  _710
REMARK  278  A    between atoms: _712  and  _714
REMARK  279  A    between atoms: _714  and  _715
REMARK  280  A    between atoms: _714  and  _717
REMARK  281  A    between atoms: _717  and  _718
REMARK                            x       y       z     vdW  Elec       q    Type
REMARK                         _______ _______ _______ _____ _____    ______ ____
ROOT
ATOM      1  CB  GLN A   1       2.503  -1.365  65.942  0.00  0.00    +0.035 C 
ENDROOT
BRANCH   1   2
ATOM      2  CA  GLN A   1       3.513  -0.405  66.618  0.00  0.00    +0.134 C 
BRANCH   2   3
ATOM      3  N   GLN A   1       4.154   0.340  65.567  0.00  0.00    -0.239 NA
ATOM      4  H   GLN A   1       4.864  -0.164  64.998  0.00  0.00    +0.142 HD
ENDBRANCH   2   3
BRANCH   2   5
ATOM      5  C   GLN A   1       4.651  -1.171  67.302  0.00  0.00    +0.224 C 
ATOM      6  O   GLN A   1       5.747  -1.288  66.743  0.00  0.00    -0.287 OA
ENDBRANCH   2   5
ENDBRANCH   1   2
BRANCH   1   7
ATOM      7  CG  GLN A   1       3.032  -1.976  64.593  0.00  0.00    +0.087 C 
BRANCH   7   8
ATOM      8  CD  GLN A   1       1.930  -2.262  63.546  0.00  0.00    +0.219 C 
ATOM      9  OE1 GLN A   1       1.573  -3.425  63.298  0.00  0.00    -0.275 OA
ATOM     10  NE2 GLN A   1       1.413  -1.200  62.913  0.00  0.00    -0.329 N 
ATOM     11 HE21 GLN A   1       1.741  -0.242  63.151  0.00  0.00    +0.145 HD
ATOM     12 HE22 GLN A   1       0.684  -1.334  62.183  0.00  0.00    +0.145 HD
ENDBRANCH   7   8
ENDBRANCH   1   7
TORSDOF 5
REMARK  Name = ../refined-set-2016/3f5k/3f5k_pocket.pdb
REMARK  281 active torsions:
REMARK  status: ('A' for Active; 'I' for Inactive)
REMARK    1  A    between atoms: _1  and  _3
REMARK    2  A    between atoms: _3  and  _4
REMARK    3  A    between atoms: _3  and  _6
REMARK    4  A    between atoms: _9  and  _11
REMARK    5  A    between atoms: _11  and  _12
REMARK    6  A    between atoms: _11  and  _14
REMARK    7  A    between atoms: _14  and  _15
REMARK    8  A    between atoms: _18  and  _20
REMARK    9  A    between atoms: _20  and  _21
REMARK   10  A    between atoms: _20  and  _23
REMARK   11  A    between atoms: _23  and  _24
REMARK   12  A    between atoms: _26  and  _28
REMARK   13  A    between atoms: _28  and  _29
REMARK   14  A    between atoms: _32  and  _34
REMARK   15  A    between atoms: _34  and  _35
REMARK   16  A    between atoms: _34  and  _37
REMARK   17  A    between atoms: _37  and  _38
REMARK   18  A    between atoms: _38  and  _39
REMARK   19  A    between atoms: _44  and  _46
REMARK   20  A    between atoms: _46  and  _47
REMARK   21  A    between atoms: _46  and  _49
REMARK   22  A    between atoms: _49  and  _50
REMARK   23  A    between atoms: _50  and  _51
REMARK   24  A    between atoms: _51  and  _52
REMARK   25  A    between atoms: _61  and  _63
REMARK   26  A    between atoms: _63  and  _64
REMARK   27  A    between atoms: _63  and  _66
REMARK   28  A    between atoms: _66  and  _67
REMARK   29  A    between atoms: _72  and  _74
REMARK   30  A    between atoms: _74  and  _75
REMARK   31  A    between atoms: _74  and  _77
REMARK   32  A    between atoms: _77  and  _78
REMARK   33  A    between atoms: _83  and  _85
REMARK   34  A    between atoms: _85  and  _86
REMARK   35  A    between atoms: _85  and  _88
REMARK   36  A    between atoms: _88  and  _89
REMARK   37  A    between atoms: _94  and  _95
REMARK   38  A    between atoms: _97  and  _99
REMARK   39  A    between atoms: _99  and  _100
REMARK   40  A    between atoms: _99  and  _102
REMARK   41  A    between atoms: _102  and  _103
REMARK   42  A    between atoms: _108  and  _110
REMARK   43  A    between atoms: _110  and  _111
REMARK   44  A    between atoms: _110  and  _113
REMARK   45  A    between atoms: _113  and  _114
REMARK   46  A    between atoms: _114  and  _115
REMARK   47  A    between atoms: _120  and  _122
REMARK   48  A    between atoms: _122  and  _123
REMARK   49  A    between atoms: _122  and  _125
REMARK   50  A    between atoms: _125  and  _126
REMARK   51  A    between atoms: _126  and  _127
REMARK   52  A    between atoms: _127  and  _128
REMARK   53  A    between atoms: _137  and  _139
REMARK   54  A    between atoms: _139  and  _140
REMARK   55  A    between atoms: _139  and  _142
REMARK   56  A    between atoms: _142  and  _143
REMARK   57  A    between atoms: _146  and  _148
REMARK   58  A    between atoms: _148  and  _149
REMARK   59  A    between atoms: _148  and  _151
REMARK   60  A    between atoms: _151  and  _152
REMARK   61  A    between atoms: _155  and  _157
REMARK   62  A    between atoms: _157  and  _158
REMARK   63  A    between atoms: _157  and  _160
REMARK   64  A    between atoms: _160  and  _161
REMARK   65  A    between atoms: _164  and  _166
REMARK   66  A    between atoms: _166  and  _167
REMARK   67  A    between atoms: _166  and  _169
REMARK   68  A    between atoms: _169  and  _170
REMARK   69  A    between atoms: _173  and  _175
REMARK   70  A    between atoms: _175  and  _176
REMARK   71  A    between atoms: _175  and  _178
REMARK   72  A    between atoms: _178  and  _179
REMARK   73  A    between atoms: _179  and  _180
REMARK   74  A    between atoms: _185  and  _187
REMARK   75  A    between atoms: _187  and  _188
REMARK   76  A    between atoms: _187  and  _190
REMARK   77  A    between atoms: _190  and  _191
REMARK   78  A    between atoms: _194  and  _196
REMARK   79  A    between atoms: _196  and  _197
REMARK   80  A    between atoms: _196  and  _199
REMARK   81  A    between atoms: _199  and  _200
REMARK   82  A    between atoms: _205  and  _207
REMARK   83  A    between atoms: _207  and  _208
REMARK   84  A    between atoms: _207  and  _210
REMARK   85  A    between atoms: _213  and  _215
REMARK   86  A    between atoms: _215  and  _216
REMARK   87  A    between atoms: _215  and  _218
REMARK   88  A    between atoms: _218  and  _219
REMARK   89  A    between atoms: _222  and  _224
REMARK   90  A    between atoms: _224  and  _225
REMARK   91  A    between atoms: _224  and  _227
REMARK   92  A    between atoms: _227  and  _228
REMARK   93  A    between atoms: _231  and  _233
REMARK   94  A    between atoms: _233  and  _234
REMARK   95  A    between atoms: _233  and  _236
REMARK   96  A    between atoms: _236  and  _237
REMARK   97  A    between atoms: _243  and  _245
REMARK   98  A    between atoms: _245  and  _246
REMARK   99  A    between atoms: _245  and  _248
REMARK  100  A    between atoms: _248  and  _249
REMARK  101  A    between atoms: _254  and  _256
REMARK  102  A    between atoms: _256  and  _257
REMARK  103  A    between atoms: _256  and  _259
REMARK  104  A    between atoms: _259  and  _260
REMARK  105  A    between atoms: _270  and  _272
REMARK  106  A    between atoms: _272  and  _273
REMARK  107  A    between atoms: _272  and  _275
REMARK  108  A    between atoms: _275  and  _276
REMARK  109  A    between atoms: _281  and  _282
REMARK  110  A    between atoms: _284  and  _286
REMARK  111  A    between atoms: _286  and  _287
REMARK  112  A    between atoms: _286  and  _289
REMARK  113  A    between atoms: _289  and  _290
REMARK  114  A    between atoms: _295  and  _297
REMARK  115  A    between atoms: _297  and  _298
REMARK  116  A    between atoms: _297  and  _300
REMARK  117  A    between atoms: _300  and  _301
REMARK  118  A    between atoms: _306  and  _308
REMARK  119  A    between atoms: _308  and  _309
REMARK  120  A    between atoms: _308  and  _311
REMARK  121  A    between atoms: _311  and  _312
REMARK  122  A    between atoms: _312  and  _313
REMARK  123  A    between atoms: _318  and  _320
REMARK  124  A    between atoms: _320  and  _321
REMARK  125  A    between atoms: _320  and  _323
REMARK  126  A    between atoms: _323  and  _324
REMARK  127  A    between atoms: _329  and  _330
REMARK  128  A    between atoms: _332  and  _334
REMARK  129  A    between atoms: _334  and  _335
REMARK  130  A    between atoms: _334  and  _337
REMARK  131  A    between atoms: _337  and  _338
REMARK  132  A    between atoms: _341  and  _343
REMARK  133  A    between atoms: _343  and  _344
REMARK  134  A    between atoms: _347  and  _349
REMARK  135  A    between atoms: _349  and  _350
REMARK  136  A    between atoms: _349  and  _352
REMARK  137  A    between atoms: _352  and  _353
REMARK  138  A    between atoms: _355  and  _357
REMARK  139  A    between atoms: _357  and  _358
REMARK  140  A    between atoms: _357  and  _360
REMARK  141  A    between atoms: _360  and  _361
REMARK  142  A    between atoms: _361  and  _362
REMARK  143  A    between atoms: _364  and  _366
REMARK  144  A    between atoms: _366  and  _367
REMARK  145  A    between atoms: _366  and  _369
REMARK  146  A    between atoms: _369  and  _370
REMARK  147  A    between atoms: _370  and  _371
REMARK  148  A    between atoms: _376  and  _378
REMARK  149  A    between atoms: _378  and  _379
REMARK  150  A    between atoms: _378  and  _381
REMARK  151  A    between atoms: _381  and  _382
REMARK  152  A    between atoms: _384  and  _386
REMARK  153  A    between atoms: _386  and  _387
REMARK  154  A    between atoms: _386  and  _389
REMARK  155  A    between atoms: _389  and  _390
REMARK  156  A    between atoms: _395  and  _396
REMARK  157  A    between atoms: _398  and  _400
REMARK  158  A    between atoms: _400  and  _401
REMARK  159  A    between atoms: _400  and  _403
REMARK  160  A    between atoms: _403  and  _404
REMARK  161  A    between atoms: _406  and  _408
REMARK  162  A    between atoms: _408  and  _409
REMARK  163  A    between atoms: _412  and  _414
REMARK  164  A    between atoms: _414  and  _415
REMARK  165  A    between atoms: _414  and  _417
REMARK  166  A    between atoms: _417  and  _418
REMARK  167  A    between atoms: _428  and  _430
REMARK  168  A    between atoms: _430  and  _431
REMARK  169  A    between atoms: _430  and  _433
REMARK  170  A    between atoms: _433  and  _434
REMARK  171  A    between atoms: _434  and  _435
REMARK  172  A    between atoms: _440  and  _442
REMARK  173  A    between atoms: _442  and  _443
REMARK  174  A    between atoms: _442  and  _445
REMARK  175  A    between atoms: _448  and  _450
REMARK  176  A    between atoms: _450  and  _451
REMARK  177  A    between atoms: _450  and  _453
REMARK  178  A    between atoms: _453  and  _454
REMARK  179  A    between atoms: _457  and  _459
REMARK  180  A    between atoms: _459  and  _460
REMARK  181  A    between atoms: _459  and  _462
REMARK  182  A    between atoms: _462  and  _463
REMARK  183  A    between atoms: _468  and  _469
REMARK  184  A    between atoms: _471  and  _473
REMARK  185  A    between atoms: _473  and  _474
REMARK  186  A    between atoms: _473  and  _476
REMARK  187  A    between atoms: _479  and  _481
REMARK  188  A    between atoms: _481  and  _482
REMARK  189  A    between atoms: _481  and  _484
REMARK  190  A    between atoms: _484  and  _485
REMARK  191  A    between atoms: _491  and  _493
REMARK  192  A    between atoms: _493  and  _494
REMARK  193  A    between atoms: _493  and  _496
REMARK  194  A    between atoms: _496  and  _497
REMARK  195  A    between atoms: _497  and  _498
REMARK  196  A    between atoms: _503  and  _505
REMARK  197  A    between atoms: _505  and  _506
REMARK  198  A    between atoms: _505  and  _508
REMARK  199  A    between atoms: _508  and  _509
REMARK  200  A    between atoms: _511  and  _513
REMARK  201  A    between atoms: _513  and  _514
REMARK  202  A    between atoms: _513  and  _516
REMARK  203  A    between atoms: _516  and  _517
REMARK  204  A    between atoms: _522  and  _524
REMARK  205  A    between atoms: _524  and  _525
REMARK  206  A    between atoms: _524  and  _527
REMARK  207  A    between atoms: _527  and  _528
REMARK  208  A    between atoms: _538  and  _540
REMARK  209  A    between atoms: _540  and  _541
REMARK  210  A    between atoms: _540  and  _543
REMARK  211  A    between atoms: _543  and  _544
REMARK  212  A    between atoms: _547  and  _549
REMARK  213  A    between atoms: _549  and  _550
REMARK  214  A    between atoms: _549  and  _552
REMARK  215  A    between atoms: _552  and  _553
REMARK  216  A    between atoms: _558  and  _559
REMARK  217  A    between atoms: _561  and  _563
REMARK  218  A    between atoms: _563  and  _564
REMARK  219  A    between atoms: _563  and  _566
REMARK  220  A    between atoms: _566  and  _567
REMARK  221  A    between atoms: _570  and  _572
REMARK  222  A    between atoms: _572  and  _573
REMARK  223  A    between atoms: _572  and  _575
REMARK  224  A    between atoms: _575  and  _576
REMARK  225  A    between atoms: _576  and  _577
REMARK  226  A    between atoms: _580  and  _582
REMARK  227  A    between atoms: _582  and  _583
REMARK  228  A    between atoms: _582  and  _585
REMARK  229  A    between atoms: _585  and  _586
REMARK  230  A    between atoms: _591  and  _593
REMARK  231  A    between atoms: _593  and  _594
REMARK  232  A    between atoms: _596  and  _598
REMARK  233  A    between atoms: _598  and  _599
REMARK  234  A    between atoms: _598  and  _601
REMARK  235  A    between atoms: _601  and  _602
REMARK  236  A    between atoms: _602  and  _603
REMARK  237  A    between atoms: _605  and  _607
REMARK  238  A    between atoms: _607  and  _608
REMARK  239  A    between atoms: _607  and  _610
REMARK  240  A    between atoms: _610  and  _611
REMARK  241  A    between atoms: _614  and  _616
REMARK  242  A    between atoms: _616  and  _617
REMARK  243  A    between atoms: _616  and  _619
REMARK  244  A    between atoms: _619  and  _620
REMARK  245  A    between atoms: _630  and  _632
REMARK  246  A    between atoms: _632  and  _633
REMARK  247  A    between atoms: _632  and  _635
REMARK  248  A    between atoms: _635  and  _636
REMARK  249  A    between atoms: _638  and  _640
REMARK  250  A    between atoms: _640  and  _641
REMARK  251  A    between atoms: _640  and  _643
REMARK  252  A    between atoms: _643  and  _644
REMARK  253  A    between atoms: _649  and  _651
REMARK  254  A    between atoms: _651  and  _652
REMARK  255  A    between atoms: _651  and  _654
REMARK  256  A    between atoms: _654  and  _655
REMARK  257  A    between atoms: _661  and  _663
REMARK  258  A    between atoms: _663  and  _664
REMARK  259  A    between atoms: _663  and  _666
REMARK  260  A    between atoms: _666  and  _667
REMARK  261  A    between atoms: _667  and  _668
REMARK  262  A    between atoms: _671  and  _673
REMARK  263  A    between atoms: _673  and  _674
REMARK  264  A    between atoms: _673  and  _676
REMARK  265  A    between atoms: _676  and  _677
REMARK  266  A    between atoms: _687  and  _689
REMARK  267  A    between atoms: _689  and  _690
REMARK  268  A    between atoms: _689  and  _692
REMARK  269  A    between atoms: _692  and  _693
REMARK  270  A    between atoms: _696  and  _698
REMARK  271  A    between atoms: _698  and  _699
REMARK  272  A    between atoms: _698  and  _701
REMARK  273  A    between atoms: _701  and  _702
REMARK  274  A    between atoms: _704  and  _706
REMARK  275  A    between atoms: _706  and  _707
REMARK  276  A    between atoms: _706  and  _709
REMARK  277  A    between atoms: _709  and  _710
REMARK  278  A    between atoms: _712  and  _714
REMARK  279  A    between atoms: _714  and  _715
REMARK  280  A    between atoms: _714  and  _717
REMARK  281  A    between atoms: _717  and  _718
REMARK                            x       y       z     vdW  Elec       q    Type
REMARK                         _______ _______ _______ _____ _____    ______ ____
ROOT
ATOM      1  CA  TYR A   2       4.687 -10.325  52.580  0.00  0.00    +0.153 C 
ENDROOT
BRANCH   1   4
ATOM      2  C   SER A   1       2.891 -11.425  53.803  0.00  0.00    +0.241 C 
ATOM      3  O   SER A   1       3.218 -10.902  54.862  0.00  0.00    -0.274 OA
ATOM      4  N   TYR A   2       3.575 -11.280  52.674  0.00  0.00    -0.297 N 
ATOM      5  H   TYR A   2       3.319 -11.851  51.844  0.00  0.00    +0.150 HD
BRANCH   2   6
ATOM      6  CA  SER A   1       1.634 -12.276  53.698  0.00  0.00    +0.174 C 
BRANCH   6   7
ATOM      7  N   SER A   1       1.175 -12.789  54.986  0.00  0.00    -0.236 NA
ATOM      8  H   SER A   1       1.477 -12.321  55.864  0.00  0.00    +0.142 HD
ENDBRANCH   6   7
BRANCH   6   9
ATOM      9  CB  SER A   1       0.550 -11.445  53.030  0.00  0.00    +0.163 C 
BRANCH   9  10
ATOM     10  OG  SER A   1       0.356 -10.232  53.724  0.00  0.00    -0.380 OA
ATOM     11  H   SER A   1       0.084 -10.426  54.656  0.00  0.00    +0.211 HD
ENDBRANCH   9  10
ENDBRANCH   6   9
ENDBRANCH   2   6
ENDBRANCH   1   4
BRANCH   1  12
ATOM     12  C   TYR A   2       4.267  -8.935  53.090  0.00  0.00    +0.241 C 
ATOM     13  O   TYR A   2       4.986  -8.337  53.885  0.00  0.00    -0.273 OA
ATOM     14  N   SER A   3       3.113  -8.430  52.643  0.00  0.00    -0.295 N 
ATOM     15  H   SER A   3       2.543  -8.997  51.983  0.00  0.00    +0.150 HD
BRANCH  14  16
ATOM     16  CA  SER A   3       2.614  -7.098  53.048  0.00  0.00    +0.178 C 
BRANCH  16  17
ATOM     17  C   SER A   3       2.452  -6.975  54.575  0.00  0.00    +0.243 C 
ATOM     18  N   ALA A   4       1.862  -8.000  55.181  0.00  0.00    -0.298 N 
ATOM     19  H   ALA A   4       1.567  -8.813  54.603  0.00  0.00    +0.150 HD
ATOM     20  O   SER A   3       2.895  -5.997  55.179  0.00  0.00    -0.273 OA
BRANCH  18  21
ATOM     21  CA  ALA A   4       1.606  -8.042  56.624  0.00  0.00    +0.137 C 
ATOM     22  CB  ALA A   4       0.588  -9.150  56.936  0.00  0.00    +0.030 C 
BRANCH  21  23
ATOM     23  C   ALA A   4       2.898  -8.236  57.447  0.00  0.00    +0.227 C 
ATOM     24  O   ALA A   4       2.970  -7.843  58.622  0.00  0.00    -0.286 OA
ENDBRANCH  21  23
ENDBRANCH  18  21
ENDBRANCH  16  17
BRANCH  16  25
ATOM     25  CB  SER A   3       1.289  -6.803  52.342  0.00  0.00    +0.166 C 
BRANCH  25  26
ATOM     26  OG  SER A   3       1.520  -6.674  50.931  0.00  0.00    -0.380 OA
ATOM     27  H   SER A   3       0.663  -6.483  50.474  0.00  0.00    +0.211 HD
ENDBRANCH  25  26
ENDBRANCH  16  25
ENDBRANCH  14  16
ENDBRANCH   1  12
BRANCH   1  28
ATOM     28  CB  TYR A   2       5.187 -10.273  51.131  0.00  0.00    +0.055 C 
BRANCH  28  29
ATOM     29  CG  TYR A   2       5.914  -8.986  50.760  0.00  0.00    -0.020 A 
ATOM     30  CD2 TYR A   2       7.226  -8.753  51.196  0.00  0.00    -0.001 A 
ATOM     31  CE2 TYR A   2       7.904  -7.555  50.824  0.00  0.00    +0.036 A 
ATOM     32  CZ  TYR A   2       7.241  -6.608  50.027  0.00  0.00    +0.134 A 
ATOM     33  CE1 TYR A   2       5.940  -6.846  49.568  0.00  0.00    +0.036 A 
ATOM     34  CD1 TYR A   2       5.293  -8.022  49.943  0.00  0.00    -0.001 A 
BRANCH  32  35
ATOM     35  OH  TYR A   2       7.869  -5.450  49.609  0.00  0.00    -0.506 OA
ATOM     36  HH  TYR A   2       8.776  -5.407  50.004  0.00  0.00    +0.292 HD
ENDBRANCH  32  35
ENDBRANCH  28  29
ENDBRANCH   1  28
TORSDOF 15
REMARK  Name = ../refined-set-2016/3f5k/3f5k_pocket.pdb
REMARK  281 active torsions:
REMARK  status: ('A' for Active; 'I' for Inactive)
REMARK    1  A    between atoms: _1  and  _3
REMARK    2  A    between atoms: _3  and  _4
REMARK    3  A    between atoms: _3  and  _6
REMARK    4  A    between atoms: _9  and  _11
REMARK    5  A    between atoms: _11  and  _12
REMARK    6  A    between atoms: _11  and  _14
REMARK    7  A    between atoms: _14  and  _15
REMARK    8  A    between atoms: _18  and  _20
REMARK    9  A    between atoms: _20  and  _21
REMARK   10  A    between atoms: _20  and  _23
REMARK   11  A    between atoms: _23  and  _24
REMARK   12  A    between atoms: _26  and  _28
REMARK   13  A    between atoms: _28  and  _29
REMARK   14  A    between atoms: _32  and  _34
REMARK   15  A    between atoms: _34  and  _35
REMARK   16  A    between atoms: _34  and  _37
REMARK   17  A    between atoms: _37  and  _38
REMARK   18  A    between atoms: _38  and  _39
REMARK   19  A    between atoms: _44  and  _46
REMARK   20  A    between atoms: _46  and  _47
REMARK   21  A    between atoms: _46  and  _49
REMARK   22  A    between atoms: _49  and  _50
REMARK   23  A    between atoms: _50  and  _51
REMARK   24  A    between atoms: _51  and  _52
REMARK   25  A    between atoms: _61  and  _63
REMARK   26  A    between atoms: _63  and  _64
REMARK   27  A    between atoms: _63  and  _66
REMARK   28  A    between atoms: _66  and  _67
REMARK   29  A    between atoms: _72  and  _74
REMARK   30  A    between atoms: _74  and  _75
REMARK   31  A    between atoms: _74  and  _77
REMARK   32  A    between atoms: _77  and  _78
REMARK   33  A    between atoms: _83  and  _85
REMARK   34  A    between atoms: _85  and  _86
REMARK   35  A    between atoms: _85  and  _88
REMARK   36  A    between atoms: _88  and  _89
REMARK   37  A    between atoms: _94  and  _95
REMARK   38  A    between atoms: _97  and  _99
REMARK   39  A    between atoms: _99  and  _100
REMARK   40  A    between atoms: _99  and  _102
REMARK   41  A    between atoms: _102  and  _103
REMARK   42  A    between atoms: _108  and  _110
REMARK   43  A    between atoms: _110  and  _111
REMARK   44  A    between atoms: _110  and  _113
REMARK   45  A    between atoms: _113  and  _114
REMARK   46  A    between atoms: _114  and  _115
REMARK   47  A    between atoms: _120  and  _122
REMARK   48  A    between atoms: _122  and  _123
REMARK   49  A    between atoms: _122  and  _125
REMARK   50  A    between atoms: _125  and  _126
REMARK   51  A    between atoms: _126  and  _127
REMARK   52  A    between atoms: _127  and  _128
REMARK   53  A    between atoms: _137  and  _139
REMARK   54  A    between atoms: _139  and  _140
REMARK   55  A    between atoms: _139  and  _142
REMARK   56  A    between atoms: _142  and  _143
REMARK   57  A    between atoms: _146  and  _148
REMARK   58  A    between atoms: _148  and  _149
REMARK   59  A    between atoms: _148  and  _151
REMARK   60  A    between atoms: _151  and  _152
REMARK   61  A    between atoms: _155  and  _157
REMARK   62  A    between atoms: _157  and  _158
REMARK   63  A    between atoms: _157  and  _160
REMARK   64  A    between atoms: _160  and  _161
REMARK   65  A    between atoms: _164  and  _166
REMARK   66  A    between atoms: _166  and  _167
REMARK   67  A    between atoms: _166  and  _169
REMARK   68  A    between atoms: _169  and  _170
REMARK   69  A    between atoms: _173  and  _175
REMARK   70  A    between atoms: _175  and  _176
REMARK   71  A    between atoms: _175  and  _178
REMARK   72  A    between atoms: _178  and  _179
REMARK   73  A    between atoms: _179  and  _180
REMARK   74  A    between atoms: _185  and  _187
REMARK   75  A    between atoms: _187  and  _188
REMARK   76  A    between atoms: _187  and  _190
REMARK   77  A    between atoms: _190  and  _191
REMARK   78  A    between atoms: _194  and  _196
REMARK   79  A    between atoms: _196  and  _197
REMARK   80  A    between atoms: _196  and  _199
REMARK   81  A    between atoms: _199  and  _200
REMARK   82  A    between atoms: _205  and  _207
REMARK   83  A    between atoms: _207  and  _208
REMARK   84  A    between atoms: _207  and  _210
REMARK   85  A    between atoms: _213  and  _215
REMARK   86  A    between atoms: _215  and  _216
REMARK   87  A    between atoms: _215  and  _218
REMARK   88  A    between atoms: _218  and  _219
REMARK   89  A    between atoms: _222  and  _224
REMARK   90  A    between atoms: _224  and  _225
REMARK   91  A    between atoms: _224  and  _227
REMARK   92  A    between atoms: _227  and  _228
REMARK   93  A    between atoms: _231  and  _233
REMARK   94  A    between atoms: _233  and  _234
REMARK   95  A    between atoms: _233  and  _236
REMARK   96  A    between atoms: _236  and  _237
REMARK   97  A    between atoms: _243  and  _245
REMARK   98  A    between atoms: _245  and  _246
REMARK   99  A    between atoms: _245  and  _248
REMARK  100  A    between atoms: _248  and  _249
REMARK  101  A    between atoms: _254  and  _256
REMARK  102  A    between atoms: _256  and  _257
REMARK  103  A    between atoms: _256  and  _259
REMARK  104  A    between atoms: _259  and  _260
REMARK  105  A    between atoms: _270  and  _272
REMARK  106  A    between atoms: _272  and  _273
REMARK  107  A    between atoms: _272  and  _275
REMARK  108  A    between atoms: _275  and  _276
REMARK  109  A    between atoms: _281  and  _282
REMARK  110  A    between atoms: _284  and  _286
REMARK  111  A    between atoms: _286  and  _287
REMARK  112  A    between atoms: _286  and  _289
REMARK  113  A    between atoms: _289  and  _290
REMARK  114  A    between atoms: _295  and  _297
REMARK  115  A    between atoms: _297  and  _298
REMARK  116  A    between atoms: _297  and  _300
REMARK  117  A    between atoms: _300  and  _301
REMARK  118  A    between atoms: _306  and  _308
REMARK  119  A    between atoms: _308  and  _309
REMARK  120  A    between atoms: _308  and  _311
REMARK  121  A    between atoms: _311  and  _312
REMARK  122  A    between atoms: _312  and  _313
REMARK  123  A    between atoms: _318  and  _320
REMARK  124  A    between atoms: _320  and  _321
REMARK  125  A    between atoms: _320  and  _323
REMARK  126  A    between atoms: _323  and  _324
REMARK  127  A    between atoms: _329  and  _330
REMARK  128  A    between atoms: _332  and  _334
REMARK  129  A    between atoms: _334  and  _335
REMARK  130  A    between atoms: _334  and  _337
REMARK  131  A    between atoms: _337  and  _338
REMARK  132  A    between atoms: _341  and  _343
REMARK  133  A    between atoms: _343  and  _344
REMARK  134  A    between atoms: _347  and  _349
REMARK  135  A    between atoms: _349  and  _350
REMARK  136  A    between atoms: _349  and  _352
REMARK  137  A    between atoms: _352  and  _353
REMARK  138  A    between atoms: _355  and  _357
REMARK  139  A    between atoms: _357  and  _358
REMARK  140  A    between atoms: _357  and  _360
REMARK  141  A    between atoms: _360  and  _361
REMARK  142  A    between atoms: _361  and  _362
REMARK  143  A    between atoms: _364  and  _366
REMARK  144  A    between atoms: _366  and  _367
REMARK  145  A    between atoms: _366  and  _369
REMARK  146  A    between atoms: _369  and  _370
REMARK  147  A    between atoms: _370  and  _371
REMARK  148  A    between atoms: _376  and  _378
REMARK  149  A    between atoms: _378  and  _379
REMARK  150  A    between atoms: _378  and  _381
REMARK  151  A    between atoms: _381  and  _382
REMARK  152  A    between atoms: _384  and  _386
REMARK  153  A    between atoms: _386  and  _387
REMARK  154  A    between atoms: _386  and  _389
REMARK  155  A    between atoms: _389  and  _390
REMARK  156  A    between atoms: _395  and  _396
REMARK  157  A    between atoms: _398  and  _400
REMARK  158  A    between atoms: _400  and  _401
REMARK  159  A    between atoms: _400  and  _403
REMARK  160  A    between atoms: _403  and  _404
REMARK  161  A    between atoms: _406  and  _408
REMARK  162  A    between atoms: _408  and  _409
REMARK  163  A    between atoms: _412  and  _414
REMARK  164  A    between atoms: _414  and  _415
REMARK  165  A    between atoms: _414  and  _417
REMARK  166  A    between atoms: _417  and  _418
REMARK  167  A    between atoms: _428  and  _430
REMARK  168  A    between atoms: _430  and  _431
REMARK  169  A    between atoms: _430  and  _433
REMARK  170  A    between atoms: _433  and  _434
REMARK  171  A    between atoms: _434  and  _435
REMARK  172  A    between atoms: _440  and  _442
REMARK  173  A    between atoms: _442  and  _443
REMARK  174  A    between atoms: _442  and  _445
REMARK  175  A    between atoms: _448  and  _450
REMARK  176  A    between atoms: _450  and  _451
REMARK  177  A    between atoms: _450  and  _453
REMARK  178  A    between atoms: _453  and  _454
REMARK  179  A    between atoms: _457  and  _459
REMARK  180  A    between atoms: _459  and  _460
REMARK  181  A    between atoms: _459  and  _462
REMARK  182  A    between atoms: _462  and  _463
REMARK  183  A    between atoms: _468  and  _469
REMARK  184  A    between atoms: _471  and  _473
REMARK  185  A    between atoms: _473  and  _474
REMARK  186  A    between atoms: _473  and  _476
REMARK  187  A    between atoms: _479  and  _481
REMARK  188  A    between atoms: _481  and  _482
REMARK  189  A    between atoms: _481  and  _484
REMARK  190  A    between atoms: _484  and  _485
REMARK  191  A    between atoms: _491  and  _493
REMARK  192  A    between atoms: _493  and  _494
REMARK  193  A    between atoms: _493  and  _496
REMARK  194  A    between atoms: _496  and  _497
REMARK  195  A    between atoms: _497  and  _498
REMARK  196  A    between atoms: _503  and  _505
REMARK  197  A    between atoms: _505  and  _506
REMARK  198  A    between atoms: _505  and  _508
REMARK  199  A    between atoms: _508  and  _509
REMARK  200  A    between atoms: _511  and  _513
REMARK  201  A    between atoms: _513  and  _514
REMARK  202  A    between atoms: _513  and  _516
REMARK  203  A    between atoms: _516  and  _517
REMARK  204  A    between atoms: _522  and  _524
REMARK  205  A    between atoms: _524  and  _525
REMARK  206  A    between atoms: _524  and  _527
REMARK  207  A    between atoms: _527  and  _528
REMARK  208  A    between atoms: _538  and  _540
REMARK  209  A    between atoms: _540  and  _541
REMARK  210  A    between atoms: _540  and  _543
REMARK  211  A    between atoms: _543  and  _544
REMARK  212  A    between atoms: _547  and  _549
REMARK  213  A    between atoms: _549  and  _550
REMARK  214  A    between atoms: _549  and  _552
REMARK  215  A    between atoms: _552  and  _553
REMARK  216  A    between atoms: _558  and  _559
REMARK  217  A    between atoms: _561  and  _563
REMARK  218  A    between atoms: _563  and  _564
REMARK  219  A    between atoms: _563  and  _566
REMARK  220  A    between atoms: _566  and  _567
REMARK  221  A    between atoms: _570  and  _572
REMARK  222  A    between atoms: _572  and  _573
REMARK  223  A    between atoms: _572  and  _575
REMARK  224  A    between atoms: _575  and  _576
REMARK  225  A    between atoms: _576  and  _577
REMARK  226  A    between atoms: _580  and  _582
REMARK  227  A    between atoms: _582  and  _583
REMARK  228  A    between atoms: _582  and  _585
REMARK  229  A    between atoms: _585  and  _586
REMARK  230  A    between atoms: _591  and  _593
REMARK  231  A    between atoms: _593  and  _594
REMARK  232  A    between atoms: _596  and  _598
REMARK  233  A    between atoms: _598  and  _599
REMARK  234  A    between atoms: _598  and  _601
REMARK  235  A    between atoms: _601  and  _602
REMARK  236  A    between atoms: _602  and  _603
REMARK  237  A    between atoms: _605  and  _607
REMARK  238  A    between atoms: _607  and  _608
REMARK  239  A    between atoms: _607  and  _610
REMARK  240  A    between atoms: _610  and  _611
REMARK  241  A    between atoms: _614  and  _616
REMARK  242  A    between atoms: _616  and  _617
REMARK  243  A    between atoms: _616  and  _619
REMARK  244  A    between atoms: _619  and  _620
REMARK  245  A    between atoms: _630  and  _632
REMARK  246  A    between atoms: _632  and  _633
REMARK  247  A    between atoms: _632  and  _635
REMARK  248  A    between atoms: _635  and  _636
REMARK  249  A    between atoms: _638  and  _640
REMARK  250  A    between atoms: _640  and  _641
REMARK  251  A    between atoms: _640  and  _643
REMARK  252  A    between atoms: _643  and  _644
REMARK  253  A    between atoms: _649  and  _651
REMARK  254  A    between atoms: _651  and  _652
REMARK  255  A    between atoms: _651  and  _654
REMARK  256  A    between atoms: _654  and  _655
REMARK  257  A    between atoms: _661  and  _663
REMARK  258  A    between atoms: _663  and  _664
REMARK  259  A    between atoms: _663  and  _666
REMARK  260  A    between atoms: _666  and  _667
REMARK  261  A    between atoms: _667  and  _668
REMARK  262  A    between atoms: _671  and  _673
REMARK  263  A    between atoms: _673  and  _674
REMARK  264  A    between atoms: _673  and  _676
REMARK  265  A    between atoms: _676  and  _677
REMARK  266  A    between atoms: _687  and  _689
REMARK  267  A    between atoms: _689  and  _690
REMARK  268  A    between atoms: _689  and  _692
REMARK  269  A    between atoms: _692  and  _693
REMARK  270  A    between atoms: _696  and  _698
REMARK  271  A    between atoms: _698  and  _699
REMARK  272  A    between atoms: _698  and  _701
REMARK  273  A    between atoms: _701  and  _702
REMARK  274  A    between atoms: _704  and  _706
REMARK  275  A    between atoms: _706  and  _707
REMARK  276  A    between atoms: _706  and  _709
REMARK  277  A    between atoms: _709  and  _710
REMARK  278  A    between atoms: _712  and  _714
REMARK  279  A    between atoms: _714  and  _715
REMARK  280  A    between atoms: _714  and  _717
REMARK  281  A    between atoms: _717  and  _718
REMARK                            x       y       z     vdW  Elec       q    Type
REMARK                         _______ _______ _______ _____ _____    ______ ____
ROOT
ATOM      1  CA  THR A   4       0.502   1.261  59.242  0.00  0.00    +0.176 C 
ENDROOT
BRANCH   1   3
ATOM      2  C   VAL A   3       2.079  -0.582  59.340  0.00  0.00    +0.241 C 
ATOM      3  N   THR A   4       1.791   0.692  59.576  0.00  0.00    -0.295 N 
ATOM      4  H   THR A   4       2.513   1.300  60.014  0.00  0.00    +0.150 HD
ATOM      5  O   VAL A   3       1.265  -1.366  58.854  0.00  0.00    -0.273 OA
BRANCH   2   6
ATOM      6  CA  VAL A   3       3.502  -1.006  59.676  0.00  0.00    +0.149 C 
BRANCH   6   9
ATOM      7  C   GLN A   2       4.168  -3.087  60.772  0.00  0.00    +0.241 C 
ATOM      8  O   GLN A   2       4.732  -2.482  61.704  0.00  0.00    -0.273 OA
ATOM      9  N   VAL A   3       3.596  -2.466  59.741  0.00  0.00    -0.297 N 
ATOM     10  H   VAL A   3       3.206  -3.033  58.962  0.00  0.00    +0.150 HD
BRANCH   7  11
ATOM     11  CA  GLN A   2       4.125  -4.616  60.730  0.00  0.00    +0.149 C 
BRANCH  11  14
ATOM     12  C   TRP A   1       5.889  -4.809  59.006  0.00  0.00    +0.239 C 
ATOM     13  O   TRP A   1       6.651  -4.040  59.585  0.00  0.00    -0.274 OA
ATOM     14  N   GLN A   2       4.695  -5.162  59.479  0.00  0.00    -0.297 N 
ATOM     15  H   GLN A   2       4.136  -5.856  58.942  0.00  0.00    +0.150 HD
BRANCH  12  16
ATOM     16  CA  TRP A   1       6.265  -5.361  57.617  0.00  0.00    +0.149 C 
BRANCH  16  17
ATOM     17  N   TRP A   1       5.572  -6.610  57.293  0.00  0.00    -0.238 NA
ATOM     18  H   TRP A   1       4.837  -6.619  56.557  0.00  0.00    +0.142 HD
ENDBRANCH  16  17
BRANCH  16  19
ATOM     19  CB  TRP A   1       5.953  -4.253  56.626  0.00  0.00    +0.054 C 
BRANCH  19  20
ATOM     20  CG  TRP A   1       6.168  -4.489  55.145  0.00  0.00    -0.002 A 
ATOM     21  CD1 TRP A   1       6.326  -5.675  54.487  0.00  0.00    +0.068 A 
ATOM     22  NE1 TRP A   1       6.412  -5.446  53.122  0.00  0.00    -0.352 N 
ATOM     23  CE2 TRP A   1       6.326  -4.100  52.893  0.00  0.00    +0.056 A 
ATOM     24  CZ2 TRP A   1       6.380  -3.373  51.686  0.00  0.00    +0.017 A 
ATOM     25  CH2 TRP A   1       6.238  -2.006  51.766  0.00  0.00    +0.001 A 
ATOM     26  CZ3 TRP A   1       6.064  -1.348  53.016  0.00  0.00    +0.000 A 
ATOM     27  CE3 TRP A   1       6.031  -2.070  54.201  0.00  0.00    +0.001 A 
ATOM     28  HE1 TRP A   1       6.524  -6.178  52.392  0.00  0.00    +0.166 HD
ATOM     29  CD2 TRP A   1       6.166  -3.468  54.151  0.00  0.00    +0.013 A 
ENDBRANCH  19  20
ENDBRANCH  16  19
ENDBRANCH  12  16
ENDBRANCH  11  14
BRANCH  11  30
ATOM     30  CB  GLN A   2       4.815  -5.244  61.954  0.00  0.00    +0.039 C 
BRANCH  30  31
ATOM     31  CG  GLN A   2       4.546  -6.753  62.061  0.00  0.00    +0.087 C 
BRANCH  31  32
ATOM     32  CD  GLN A   2       4.948  -7.358  63.417  0.00  0.00    +0.219 C 
ATOM     33  OE1 GLN A   2       4.617  -6.820  64.478  0.00  0.00    -0.275 OA
ATOM     34  NE2 GLN A   2       5.689  -8.450  63.378  0.00  0.00    -0.329 N 
ATOM     35 HE21 GLN A   2       6.016  -8.888  64.263  0.00  0.00    +0.145 HD
ATOM     36 HE22 GLN A   2       5.946  -8.872  62.463  0.00  0.00    +0.145 HD
ENDBRANCH  31  32
ENDBRANCH  30  31
ENDBRANCH  11  30
ENDBRANCH   7  11
ENDBRANCH   6   9
BRANCH   6  37
ATOM     37  CB  VAL A   3       4.474  -0.374  58.619  0.00  0.00    +0.027 C 
ATOM     38  CG2 VAL A   3       5.927  -0.769  58.906  0.00  0.00    +0.002 C 
ATOM     39  CG1 VAL A   3       4.028  -0.733  57.182  0.00  0.00    +0.002 C 
ENDBRANCH   6  37
ENDBRANCH   2   6
ENDBRANCH   1   3
BRANCH   1  40
ATOM     40  C   THR A   4       0.726   2.453  58.293  0.00  0.00    +0.243 C 
ATOM     41  O   THR A   4       1.422   3.398  58.650  0.00  0.00    -0.273 OA
ATOM     42  N   TYR A   5       0.170   2.387  57.082  0.00  0.00    -0.297 N 
ATOM     43  H   TYR A   5      -0.322   1.513  56.807  0.00  0.00    +0.150 HD
BRANCH  42  44
ATOM     44  CA  TYR A   5       0.223   3.496  56.122  0.00  0.00    +0.153 C 
BRANCH  44  45
ATOM     45  C   TYR A   5      -0.652   4.640  56.600  0.00  0.00    +0.241 C 
ATOM     46  O   TYR A   5      -1.770   4.402  57.056  0.00  0.00    -0.273 OA
ATOM     47  N   VAL A   6      -0.144   5.864  56.498  0.00  0.00    -0.297 N 
ATOM     48  H   VAL A   6       0.840   5.970  56.178  0.00  0.00    +0.150 HD
BRANCH  47  49
ATOM     49  CA  VAL A   6      -0.907   7.064  56.815  0.00  0.00    +0.149 C 
BRANCH  49  50
ATOM     50  C   VAL A   6      -0.670   8.088  55.711  0.00  0.00    +0.241 C 
ATOM     51  O   VAL A   6       0.473   8.286  55.273  0.00  0.00    -0.273 OA
ATOM     52  N   PHE A   7      -1.744   8.719  55.240  0.00  0.00    -0.298 N 
ATOM     53  H   PHE A   7      -2.664   8.557  55.697  0.00  0.00    +0.150 HD
BRANCH  52  54
ATOM     54  CA  PHE A   7      -1.670   9.638  54.094  0.00  0.00    +0.141 C 
BRANCH  54  55
ATOM     55  C   PHE A   7      -1.985  11.098  54.404  0.00  0.00    +0.227 C 
ATOM     56  O   PHE A   7      -2.150  11.909  53.487  0.00  0.00    -0.286 OA
ENDBRANCH  54  55
BRANCH  54  57
ATOM     57  CB  PHE A   7      -2.529   9.107  52.915  0.00  0.00    +0.054 C 
BRANCH  57  58
ATOM     58  CG  PHE A   7      -2.029   7.798  52.384  0.00  0.00    -0.020 A 
ATOM     59  CD2 PHE A   7      -2.549   6.601  52.861  0.00  0.00    -0.004 A 
ATOM     60  CE2 PHE A   7      -2.082   5.385  52.407  0.00  0.00    -0.000 A 
ATOM     61  CZ  PHE A   7      -1.060   5.354  51.473  0.00  0.00    -0.000 A 
ATOM     62  CE1 PHE A   7      -0.499   6.547  50.998  0.00  0.00    -0.000 A 
ATOM     63  CD1 PHE A   7      -0.982   7.767  51.467  0.00  0.00    -0.004 A 
ENDBRANCH  57  58
ENDBRANCH  54  57
ENDBRANCH  52  54
ENDBRANCH  49  50
BRANCH  49  64
ATOM     64  CB  VAL A   6      -0.492   7.633  58.206  0.00  0.00    +0.027 C 
ATOM     65  CG2 VAL A   6      -0.915   6.678  59.334  0.00  0.00    +0.002 C 
ATOM     66  CG1 VAL A   6      -1.072   9.037  58.415  0.00  0.00    +0.002 C 
ENDBRANCH  49  64
ENDBRANCH  47  49
ENDBRANCH  44  45
BRANCH  44  67
ATOM     67  CB  TYR A   5      -0.313   3.038  54.758  0.00  0.00    +0.055 C 
BRANCH  67  68
ATOM     68  CG  TYR A   5       0.625   2.140  53.995  0.00  0.00    -0.020 A 
ATOM     69  CD2 TYR A   5       0.779   0.792  54.348  0.00  0.00    -0.001 A 
ATOM     70  CE2 TYR A   5       1.648  -0.036  53.643  0.00  0.00    +0.036 A 
ATOM     71  CZ  TYR A   5       2.361   0.487  52.567  0.00  0.00    +0.134 A 
ATOM     72  CE1 TYR A   5       2.234   1.827  52.196  0.00  0.00    +0.036 A 
ATOM     73  CD1 TYR A   5       1.369   2.648  52.914  0.00  0.00    -0.001 A 
BRANCH  71  74
ATOM     74  OH  TYR A   5       3.214  -0.323  51.874  0.00  0.00    -0.506 OA
ATOM     75  HH  TYR A   5       2.937  -0.357  50.924  0.00  0.00    +0.292 HD
ENDBRANCH  71  74
ENDBRANCH  67  68
ENDBRANCH  44  67
ENDBRANCH  42  44
ENDBRANCH   1  40
BRANCH   1  76
ATOM     76  CB  THR A   4      -0.206   1.741  60.531  0.00  0.00    +0.137 C 
ATOM     77  CG2 THR A   4      -1.509   2.405  60.203  0.00  0.00    +0.034 C 
BRANCH  76  78
ATOM     78  OG1 THR A   4      -0.457   0.623  61.390  0.00  0.00    -0.382 OA
ATOM     79  HG1 THR A   4      -0.910   0.936  62.213  0.00  0.00    +0.210 HD
ENDBRANCH  76  78
ENDBRANCH   1  76
TORSDOF 28
REMARK  Name = ../refined-set-2016/3f5k/3f5k_pocket.pdb
REMARK  281 active torsions:
REMARK  status: ('A' for Active; 'I' for Inactive)
REMARK    1  A    between atoms: _1  and  _3
REMARK    2  A    between atoms: _3  and  _4
REMARK    3  A    between atoms: _3  and  _6
REMARK    4  A    between atoms: _9  and  _11
REMARK    5  A    between atoms: _11  and  _12
REMARK    6  A    between atoms: _11  and  _14
REMARK    7  A    between atoms: _14  and  _15
REMARK    8  A    between atoms: _18  and  _20
REMARK    9  A    between atoms: _20  and  _21
REMARK   10  A    between atoms: _20  and  _23
REMARK   11  A    between atoms: _23  and  _24
REMARK   12  A    between atoms: _26  and  _28
REMARK   13  A    between atoms: _28  and  _29
REMARK   14  A    between atoms: _32  and  _34
REMARK   15  A    between atoms: _34  and  _35
REMARK   16  A    between atoms: _34  and  _37
REMARK   17  A    between atoms: _37  and  _38
REMARK   18  A    between atoms: _38  and  _39
REMARK   19  A    between atoms: _44  and  _46
REMARK   20  A    between atoms: _46  and  _47
REMARK   21  A    between atoms: _46  and  _49
REMARK   22  A    between atoms: _49  and  _50
REMARK   23  A    between atoms: _50  and  _51
REMARK   24  A    between atoms: _51  and  _52
REMARK   25  A    between atoms: _61  and  _63
REMARK   26  A    between atoms: _63  and  _64
REMARK   27  A    between atoms: _63  and  _66
REMARK   28  A    between atoms: _66  and  _67
REMARK   29  A    between atoms: _72  and  _74
REMARK   30  A    between atoms: _74  and  _75
REMARK   31  A    between atoms: _74  and  _77
REMARK   32  A    between atoms: _77  and  _78
REMARK   33  A    between atoms: _83  and  _85
REMARK   34  A    between atoms: _85  and  _86
REMARK   35  A    between atoms: _85  and  _88
REMARK   36  A    between atoms: _88  and  _89
REMARK   37  A    between atoms: _94  and  _95
REMARK   38  A    between atoms: _97  and  _99
REMARK   39  A    between atoms: _99  and  _100
REMARK   40  A    between atoms: _99  and  _102
REMARK   41  A    between atoms: _102  and  _103
REMARK   42  A    between atoms: _108  and  _110
REMARK   43  A    between atoms: _110  and  _111
REMARK   44  A    between atoms: _110  and  _113
REMARK   45  A    between atoms: _113  and  _114
REMARK   46  A    between atoms: _114  and  _115
REMARK   47  A    between atoms: _120  and  _122
REMARK   48  A    between atoms: _122  and  _123
REMARK   49  A    between atoms: _122  and  _125
REMARK   50  A    between atoms: _125  and  _126
REMARK   51  A    between atoms: _126  and  _127
REMARK   52  A    between atoms: _127  and  _128
REMARK   53  A    between atoms: _137  and  _139
REMARK   54  A    between atoms: _139  and  _140
REMARK   55  A    between atoms: _139  and  _142
REMARK   56  A    between atoms: _142  and  _143
REMARK   57  A    between atoms: _146  and  _148
REMARK   58  A    between atoms: _148  and  _149
REMARK   59  A    between atoms: _148  and  _151
REMARK   60  A    between atoms: _151  and  _152
REMARK   61  A    between atoms: _155  and  _157
REMARK   62  A    between atoms: _157  and  _158
REMARK   63  A    between atoms: _157  and  _160
REMARK   64  A    between atoms: _160  and  _161
REMARK   65  A    between atoms: _164  and  _166
REMARK   66  A    between atoms: _166  and  _167
REMARK   67  A    between atoms: _166  and  _169
REMARK   68  A    between atoms: _169  and  _170
REMARK   69  A    between atoms: _173  and  _175
REMARK   70  A    between atoms: _175  and  _176
REMARK   71  A    between atoms: _175  and  _178
REMARK   72  A    between atoms: _178  and  _179
REMARK   73  A    between atoms: _179  and  _180
REMARK   74  A    between atoms: _185  and  _187
REMARK   75  A    between atoms: _187  and  _188
REMARK   76  A    between atoms: _187  and  _190
REMARK   77  A    between atoms: _190  and  _191
REMARK   78  A    between atoms: _194  and  _196
REMARK   79  A    between atoms: _196  and  _197
REMARK   80  A    between atoms: _196  and  _199
REMARK   81  A    between atoms: _199  and  _200
REMARK   82  A    between atoms: _205  and  _207
REMARK   83  A    between atoms: _207  and  _208
REMARK   84  A    between atoms: _207  and  _210
REMARK   85  A    between atoms: _213  and  _215
REMARK   86  A    between atoms: _215  and  _216
REMARK   87  A    between atoms: _215  and  _218
REMARK   88  A    between atoms: _218  and  _219
REMARK   89  A    between atoms: _222  and  _224
REMARK   90  A    between atoms: _224  and  _225
REMARK   91  A    between atoms: _224  and  _227
REMARK   92  A    between atoms: _227  and  _228
REMARK   93  A    between atoms: _231  and  _233
REMARK   94  A    between atoms: _233  and  _234
REMARK   95  A    between atoms: _233  and  _236
REMARK   96  A    between atoms: _236  and  _237
REMARK   97  A    between atoms: _243  and  _245
REMARK   98  A    between atoms: _245  and  _246
REMARK   99  A    between atoms: _245  and  _248
REMARK  100  A    between atoms: _248  and  _249
REMARK  101  A    between atoms: _254  and  _256
REMARK  102  A    between atoms: _256  and  _257
REMARK  103  A    between atoms: _256  and  _259
REMARK  104  A    between atoms: _259  and  _260
REMARK  105  A    between atoms: _270  and  _272
REMARK  106  A    between atoms: _272  and  _273
REMARK  107  A    between atoms: _272  and  _275
REMARK  108  A    between atoms: _275  and  _276
REMARK  109  A    between atoms: _281  and  _282
REMARK  110  A    between atoms: _284  and  _286
REMARK  111  A    between atoms: _286  and  _287
REMARK  112  A    between atoms: _286  and  _289
REMARK  113  A    between atoms: _289  and  _290
REMARK  114  A    between atoms: _295  and  _297
REMARK  115  A    between atoms: _297  and  _298
REMARK  116  A    between atoms: _297  and  _300
REMARK  117  A    between atoms: _300  and  _301
REMARK  118  A    between atoms: _306  and  _308
REMARK  119  A    between atoms: _308  and  _309
REMARK  120  A    between atoms: _308  and  _311
REMARK  121  A    between atoms: _311  and  _312
REMARK  122  A    between atoms: _312  and  _313
REMARK  123  A    between atoms: _318  and  _320
REMARK  124  A    between atoms: _320  and  _321
REMARK  125  A    between atoms: _320  and  _323
REMARK  126  A    between atoms: _323  and  _324
REMARK  127  A    between atoms: _329  and  _330
REMARK  128  A    between atoms: _332  and  _334
REMARK  129  A    between atoms: _334  and  _335
REMARK  130  A    between atoms: _334  and  _337
REMARK  131  A    between atoms: _337  and  _338
REMARK  132  A    between atoms: _341  and  _343
REMARK  133  A    between atoms: _343  and  _344
REMARK  134  A    between atoms: _347  and  _349
REMARK  135  A    between atoms: _349  and  _350
REMARK  136  A    between atoms: _349  and  _352
REMARK  137  A    between atoms: _352  and  _353
REMARK  138  A    between atoms: _355  and  _357
REMARK  139  A    between atoms: _357  and  _358
REMARK  140  A    between atoms: _357  and  _360
REMARK  141  A    between atoms: _360  and  _361
REMARK  142  A    between atoms: _361  and  _362
REMARK  143  A    between atoms: _364  and  _366
REMARK  144  A    between atoms: _366  and  _367
REMARK  145  A    between atoms: _366  and  _369
REMARK  146  A    between atoms: _369  and  _370
REMARK  147  A    between atoms: _370  and  _371
REMARK  148  A    between atoms: _376  and  _378
REMARK  149  A    between atoms: _378  and  _379
REMARK  150  A    between atoms: _378  and  _381
REMARK  151  A    between atoms: _381  and  _382
REMARK  152  A    between atoms: _384  and  _386
REMARK  153  A    between atoms: _386  and  _387
REMARK  154  A    between atoms: _386  and  _389
REMARK  155  A    between atoms: _389  and  _390
REMARK  156  A    between atoms: _395  and  _396
REMARK  157  A    between atoms: _398  and  _400
REMARK  158  A    between atoms: _400  and  _401
REMARK  159  A    between atoms: _400  and  _403
REMARK  160  A    between atoms: _403  and  _404
REMARK  161  A    between atoms: _406  and  _408
REMARK  162  A    between atoms: _408  and  _409
REMARK  163  A    between atoms: _412  and  _414
REMARK  164  A    between atoms: _414  and  _415
REMARK  165  A    between atoms: _414  and  _417
REMARK  166  A    between atoms: _417  and  _418
REMARK  167  A    between atoms: _428  and  _430
REMARK  168  A    between atoms: _430  and  _431
REMARK  169  A    between atoms: _430  and  _433
REMARK  170  A    between atoms: _433  and  _434
REMARK  171  A    between atoms: _434  and  _435
REMARK  172  A    between atoms: _440  and  _442
REMARK  173  A    between atoms: _442  and  _443
REMARK  174  A    between atoms: _442  and  _445
REMARK  175  A    between atoms: _448  and  _450
REMARK  176  A    between atoms: _450  and  _451
REMARK  177  A    between atoms: _450  and  _453
REMARK  178  A    between atoms: _453  and  _454
REMARK  179  A    between atoms: _457  and  _459
REMARK  180  A    between atoms: _459  and  _460
REMARK  181  A    between atoms: _459  and  _462
REMARK  182  A    between atoms: _462  and  _463
REMARK  183  A    between atoms: _468  and  _469
REMARK  184  A    between atoms: _471  and  _473
REMARK  185  A    between atoms: _473  and  _474
REMARK  186  A    between atoms: _473  and  _476
REMARK  187  A    between atoms: _479  and  _481
REMARK  188  A    between atoms: _481  and  _482
REMARK  189  A    between atoms: _481  and  _484
REMARK  190  A    between atoms: _484  and  _485
REMARK  191  A    between atoms: _491  and  _493
REMARK  192  A    between atoms: _493  and  _494
REMARK  193  A    between atoms: _493  and  _496
REMARK  194  A    between atoms: _496  and  _497
REMARK  195  A    between atoms: _497  and  _498
REMARK  196  A    between atoms: _503  and  _505
REMARK  197  A    between atoms: _505  and  _506
REMARK  198  A    between atoms: _505  and  _508
REMARK  199  A    between atoms: _508  and  _509
REMARK  200  A    between atoms: _511  and  _513
REMARK  201  A    between atoms: _513  and  _514
REMARK  202  A    between atoms: _513  and  _516
REMARK  203  A    between atoms: _516  and  _517
REMARK  204  A    between atoms: _522  and  _524
REMARK  205  A    between atoms: _524  and  _525
REMARK  206  A    between atoms: _524  and  _527
REMARK  207  A    between atoms: _527  and  _528
REMARK  208  A    between atoms: _538  and  _540
REMARK  209  A    between atoms: _540  and  _541
REMARK  210  A    between atoms: _540  and  _543
REMARK  211  A    between atoms: _543  and  _544
REMARK  212  A    between atoms: _547  and  _549
REMARK  213  A    between atoms: _549  and  _550
REMARK  214  A    between atoms: _549  and  _552
REMARK  215  A    between atoms: _552  and  _553
REMARK  216  A    between atoms: _558  and  _559
REMARK  217  A    between atoms: _561  and  _563
REMARK  218  A    between atoms: _563  and  _564
REMARK  219  A    between atoms: _563  and  _566
REMARK  220  A    between atoms: _566  and  _567
REMARK  221  A    between atoms: _570  and  _572
REMARK  222  A    between atoms: _572  and  _573
REMARK  223  A    between atoms: _572  and  _575
REMARK  224  A    between atoms: _575  and  _576
REMARK  225  A    between atoms: _576  and  _577
REMARK  226  A    between atoms: _580  and  _582
REMARK  227  A    between atoms: _582  and  _583
REMARK  228  A    between atoms: _582  and  _585
REMARK  229  A    between atoms: _585  and  _586
REMARK  230  A    between atoms: _591  and  _593
REMARK  231  A    between atoms: _593  and  _594
REMARK  232  A    between atoms: _596  and  _598
REMARK  233  A    between atoms: _598  and  _599
REMARK  234  A    between atoms: _598  and  _601
REMARK  235  A    between atoms: _601  and  _602
REMARK  236  A    between atoms: _602  and  _603
REMARK  237  A    between atoms: _605  and  _607
REMARK  238  A    between atoms: _607  and  _608
REMARK  239  A    between atoms: _607  and  _610
REMARK  240  A    between atoms: _610  and  _611
REMARK  241  A    between atoms: _614  and  _616
REMARK  242  A    between atoms: _616  and  _617
REMARK  243  A    between atoms: _616  and  _619
REMARK  244  A    between atoms: _619  and  _620
REMARK  245  A    between atoms: _630  and  _632
REMARK  246  A    between atoms: _632  and  _633
REMARK  247  A    between atoms: _632  and  _635
REMARK  248  A    between atoms: _635  and  _636
REMARK  249  A    between atoms: _638  and  _640
REMARK  250  A    between atoms: _640  and  _641
REMARK  251  A    between atoms: _640  and  _643
REMARK  252  A    between atoms: _643  and  _644
REMARK  253  A    between atoms: _649  and  _651
REMARK  254  A    between atoms: _651  and  _652
REMARK  255  A    between atoms: _651  and  _654
REMARK  256  A    between atoms: _654  and  _655
REMARK  257  A    between atoms: _661  and  _663
REMARK  258  A    between atoms: _663  and  _664
REMARK  259  A    between atoms: _663  and  _666
REMARK  260  A    between atoms: _666  and  _667
REMARK  261  A    between atoms: _667  and  _668
REMARK  262  A    between atoms: _671  and  _673
REMARK  263  A    between atoms: _673  and  _674
REMARK  264  A    between atoms: _673  and  _676
REMARK  265  A    between atoms: _676  and  _677
REMARK  266  A    between atoms: _687  and  _689
REMARK  267  A    between atoms: _689  and  _690
REMARK  268  A    between atoms: _689  and  _692
REMARK  269  A    between atoms: _692  and  _693
REMARK  270  A    between atoms: _696  and  _698
REMARK  271  A    between atoms: _698  and  _699
REMARK  272  A    between atoms: _698  and  _701
REMARK  273  A    between atoms: _701  and  _702
REMARK  274  A    between atoms: _704  and  _706
REMARK  275  A    between atoms: _706  and  _707
REMARK  276  A    between atoms: _706  and  _709
REMARK  277  A    between atoms: _709  and  _710
REMARK  278  A    between atoms: _712  and  _714
REMARK  279  A    between atoms: _714  and  _715
REMARK  280  A    between atoms: _714  and  _717
REMARK  281  A    between atoms: _717  and  _718
REMARK                            x       y       z     vdW  Elec       q    Type
REMARK                         _______ _______ _______ _____ _____    ______ ____
ROOT
ATOM      1  CB  GLN A   1      -4.735  11.259  44.395  0.00  0.00    +0.035 C 
ENDROOT
BRANCH   1   2
ATOM      2  CA  GLN A   1      -3.655  12.270  44.056  0.00  0.00    +0.134 C 
BRANCH   2   3
ATOM      3  N   GLN A   1      -3.854  13.482  44.843  0.00  0.00    -0.239 NA
ATOM      4  H   GLN A   1      -4.817  13.785  45.094  0.00  0.00    +0.142 HD
ENDBRANCH   2   3
BRANCH   2   5
ATOM      5  C   GLN A   1      -3.742  12.566  42.583  0.00  0.00    +0.224 C 
ATOM      6  O   GLN A   1      -4.514  13.432  42.183  0.00  0.00    -0.287 OA
ENDBRANCH   2   5
ENDBRANCH   1   2
BRANCH   1   7
ATOM      7  CG  GLN A   1      -4.510  10.533  45.740  0.00  0.00    +0.087 C 
BRANCH   7   8
ATOM      8  CD  GLN A   1      -5.789   9.891  46.215  0.00  0.00    +0.219 C 
ATOM      9  NE2 GLN A   1      -6.797  10.717  46.496  0.00  0.00    -0.329 N 
ATOM     10 HE21 GLN A   1      -7.721  10.333  46.780  0.00  0.00    +0.145 HD
ATOM     11 HE22 GLN A   1      -6.660  11.746  46.431  0.00  0.00    +0.145 HD
ATOM     12  OE1 GLN A   1      -5.896   8.655  46.276  0.00  0.00    -0.275 OA
ENDBRANCH   7   8
ENDBRANCH   1   7
TORSDOF 5
REMARK  Name = ../refined-set-2016/3f5k/3f5k_pocket.pdb
REMARK  281 active torsions:
REMARK  status: ('A' for Active; 'I' for Inactive)
REMARK    1  A    between atoms: _1  and  _3
REMARK    2  A    between atoms: _3  and  _4
REMARK    3  A    between atoms: _3  and  _6
REMARK    4  A    between atoms: _9  and  _11
REMARK    5  A    between atoms: _11  and  _12
REMARK    6  A    between atoms: _11  and  _14
REMARK    7  A    between atoms: _14  and  _15
REMARK    8  A    between atoms: _18  and  _20
REMARK    9  A    between atoms: _20  and  _21
REMARK   10  A    between atoms: _20  and  _23
REMARK   11  A    between atoms: _23  and  _24
REMARK   12  A    between atoms: _26  and  _28
REMARK   13  A    between atoms: _28  and  _29
REMARK   14  A    between atoms: _32  and  _34
REMARK   15  A    between atoms: _34  and  _35
REMARK   16  A    between atoms: _34  and  _37
REMARK   17  A    between atoms: _37  and  _38
REMARK   18  A    between atoms: _38  and  _39
REMARK   19  A    between atoms: _44  and  _46
REMARK   20  A    between atoms: _46  and  _47
REMARK   21  A    between atoms: _46  and  _49
REMARK   22  A    between atoms: _49  and  _50
REMARK   23  A    between atoms: _50  and  _51
REMARK   24  A    between atoms: _51  and  _52
REMARK   25  A    between atoms: _61  and  _63
REMARK   26  A    between atoms: _63  and  _64
REMARK   27  A    between atoms: _63  and  _66
REMARK   28  A    between atoms: _66  and  _67
REMARK   29  A    between atoms: _72  and  _74
REMARK   30  A    between atoms: _74  and  _75
REMARK   31  A    between atoms: _74  and  _77
REMARK   32  A    between atoms: _77  and  _78
REMARK   33  A    between atoms: _83  and  _85
REMARK   34  A    between atoms: _85  and  _86
REMARK   35  A    between atoms: _85  and  _88
REMARK   36  A    between atoms: _88  and  _89
REMARK   37  A    between atoms: _94  and  _95
REMARK   38  A    between atoms: _97  and  _99
REMARK   39  A    between atoms: _99  and  _100
REMARK   40  A    between atoms: _99  and  _102
REMARK   41  A    between atoms: _102  and  _103
REMARK   42  A    between atoms: _108  and  _110
REMARK   43  A    between atoms: _110  and  _111
REMARK   44  A    between atoms: _110  and  _113
REMARK   45  A    between atoms: _113  and  _114
REMARK   46  A    between atoms: _114  and  _115
REMARK   47  A    between atoms: _120  and  _122
REMARK   48  A    between atoms: _122  and  _123
REMARK   49  A    between atoms: _122  and  _125
REMARK   50  A    between atoms: _125  and  _126
REMARK   51  A    between atoms: _126  and  _127
REMARK   52  A    between atoms: _127  and  _128
REMARK   53  A    between atoms: _137  and  _139
REMARK   54  A    between atoms: _139  and  _140
REMARK   55  A    between atoms: _139  and  _142
REMARK   56  A    between atoms: _142  and  _143
REMARK   57  A    between atoms: _146  and  _148
REMARK   58  A    between atoms: _148  and  _149
REMARK   59  A    between atoms: _148  and  _151
REMARK   60  A    between atoms: _151  and  _152
REMARK   61  A    between atoms: _155  and  _157
REMARK   62  A    between atoms: _157  and  _158
REMARK   63  A    between atoms: _157  and  _160
REMARK   64  A    between atoms: _160  and  _161
REMARK   65  A    between atoms: _164  and  _166
REMARK   66  A    between atoms: _166  and  _167
REMARK   67  A    between atoms: _166  and  _169
REMARK   68  A    between atoms: _169  and  _170
REMARK   69  A    between atoms: _173  and  _175
REMARK   70  A    between atoms: _175  and  _176
REMARK   71  A    between atoms: _175  and  _178
REMARK   72  A    between atoms: _178  and  _179
REMARK   73  A    between atoms: _179  and  _180
REMARK   74  A    between atoms: _185  and  _187
REMARK   75  A    between atoms: _187  and  _188
REMARK   76  A    between atoms: _187  and  _190
REMARK   77  A    between atoms: _190  and  _191
REMARK   78  A    between atoms: _194  and  _196
REMARK   79  A    between atoms: _196  and  _197
REMARK   80  A    between atoms: _196  and  _199
REMARK   81  A    between atoms: _199  and  _200
REMARK   82  A    between atoms: _205  and  _207
REMARK   83  A    between atoms: _207  and  _208
REMARK   84  A    between atoms: _207  and  _210
REMARK   85  A    between atoms: _213  and  _215
REMARK   86  A    between atoms: _215  and  _216
REMARK   87  A    between atoms: _215  and  _218
REMARK   88  A    between atoms: _218  and  _219
REMARK   89  A    between atoms: _222  and  _224
REMARK   90  A    between atoms: _224  and  _225
REMARK   91  A    between atoms: _224  and  _227
REMARK   92  A    between atoms: _227  and  _228
REMARK   93  A    between atoms: _231  and  _233
REMARK   94  A    between atoms: _233  and  _234
REMARK   95  A    between atoms: _233  and  _236
REMARK   96  A    between atoms: _236  and  _237
REMARK   97  A    between atoms: _243  and  _245
REMARK   98  A    between atoms: _245  and  _246
REMARK   99  A    between atoms: _245  and  _248
REMARK  100  A    between atoms: _248  and  _249
REMARK  101  A    between atoms: _254  and  _256
REMARK  102  A    between atoms: _256  and  _257
REMARK  103  A    between atoms: _256  and  _259
REMARK  104  A    between atoms: _259  and  _260
REMARK  105  A    between atoms: _270  and  _272
REMARK  106  A    between atoms: _272  and  _273
REMARK  107  A    between atoms: _272  and  _275
REMARK  108  A    between atoms: _275  and  _276
REMARK  109  A    between atoms: _281  and  _282
REMARK  110  A    between atoms: _284  and  _286
REMARK  111  A    between atoms: _286  and  _287
REMARK  112  A    between atoms: _286  and  _289
REMARK  113  A    between atoms: _289  and  _290
REMARK  114  A    between atoms: _295  and  _297
REMARK  115  A    between atoms: _297  and  _298
REMARK  116  A    between atoms: _297  and  _300
REMARK  117  A    between atoms: _300  and  _301
REMARK  118  A    between atoms: _306  and  _308
REMARK  119  A    between atoms: _308  and  _309
REMARK  120  A    between atoms: _308  and  _311
REMARK  121  A    between atoms: _311  and  _312
REMARK  122  A    between atoms: _312  and  _313
REMARK  123  A    between atoms: _318  and  _320
REMARK  124  A    between atoms: _320  and  _321
REMARK  125  A    between atoms: _320  and  _323
REMARK  126  A    between atoms: _323  and  _324
REMARK  127  A    between atoms: _329  and  _330
REMARK  128  A    between atoms: _332  and  _334
REMARK  129  A    between atoms: _334  and  _335
REMARK  130  A    between atoms: _334  and  _337
REMARK  131  A    between atoms: _337  and  _338
REMARK  132  A    between atoms: _341  and  _343
REMARK  133  A    between atoms: _343  and  _344
REMARK  134  A    between atoms: _347  and  _349
REMARK  135  A    between atoms: _349  and  _350
REMARK  136  A    between atoms: _349  and  _352
REMARK  137  A    between atoms: _352  and  _353
REMARK  138  A    between atoms: _355  and  _357
REMARK  139  A    between atoms: _357  and  _358
REMARK  140  A    between atoms: _357  and  _360
REMARK  141  A    between atoms: _360  and  _361
REMARK  142  A    between atoms: _361  and  _362
REMARK  143  A    between atoms: _364  and  _366
REMARK  144  A    between atoms: _366  and  _367
REMARK  145  A    between atoms: _366  and  _369
REMARK  146  A    between atoms: _369  and  _370
REMARK  147  A    between atoms: _370  and  _371
REMARK  148  A    between atoms: _376  and  _378
REMARK  149  A    between atoms: _378  and  _379
REMARK  150  A    between atoms: _378  and  _381
REMARK  151  A    between atoms: _381  and  _382
REMARK  152  A    between atoms: _384  and  _386
REMARK  153  A    between atoms: _386  and  _387
REMARK  154  A    between atoms: _386  and  _389
REMARK  155  A    between atoms: _389  and  _390
REMARK  156  A    between atoms: _395  and  _396
REMARK  157  A    between atoms: _398  and  _400
REMARK  158  A    between atoms: _400  and  _401
REMARK  159  A    between atoms: _400  and  _403
REMARK  160  A    between atoms: _403  and  _404
REMARK  161  A    between atoms: _406  and  _408
REMARK  162  A    between atoms: _408  and  _409
REMARK  163  A    between atoms: _412  and  _414
REMARK  164  A    between atoms: _414  and  _415
REMARK  165  A    between atoms: _414  and  _417
REMARK  166  A    between atoms: _417  and  _418
REMARK  167  A    between atoms: _428  and  _430
REMARK  168  A    between atoms: _430  and  _431
REMARK  169  A    between atoms: _430  and  _433
REMARK  170  A    between atoms: _433  and  _434
REMARK  171  A    between atoms: _434  and  _435
REMARK  172  A    between atoms: _440  and  _442
REMARK  173  A    between atoms: _442  and  _443
REMARK  174  A    between atoms: _442  and  _445
REMARK  175  A    between atoms: _448  and  _450
REMARK  176  A    between atoms: _450  and  _451
REMARK  177  A    between atoms: _450  and  _453
REMARK  178  A    between atoms: _453  and  _454
REMARK  179  A    between atoms: _457  and  _459
REMARK  180  A    between atoms: _459  and  _460
REMARK  181  A    between atoms: _459  and  _462
REMARK  182  A    between atoms: _462  and  _463
REMARK  183  A    between atoms: _468  and  _469
REMARK  184  A    between atoms: _471  and  _473
REMARK  185  A    between atoms: _473  and  _474
REMARK  186  A    between atoms: _473  and  _476
REMARK  187  A    between atoms: _479  and  _481
REMARK  188  A    between atoms: _481  and  _482
REMARK  189  A    between atoms: _481  and  _484
REMARK  190  A    between atoms: _484  and  _485
REMARK  191  A    between atoms: _491  and  _493
REMARK  192  A    between atoms: _493  and  _494
REMARK  193  A    between atoms: _493  and  _496
REMARK  194  A    between atoms: _496  and  _497
REMARK  195  A    between atoms: _497  and  _498
REMARK  196  A    between atoms: _503  and  _505
REMARK  197  A    between atoms: _505  and  _506
REMARK  198  A    between atoms: _505  and  _508
REMARK  199  A    between atoms: _508  and  _509
REMARK  200  A    between atoms: _511  and  _513
REMARK  201  A    between atoms: _513  and  _514
REMARK  202  A    between atoms: _513  and  _516
REMARK  203  A    between atoms: _516  and  _517
REMARK  204  A    between atoms: _522  and  _524
REMARK  205  A    between atoms: _524  and  _525
REMARK  206  A    between atoms: _524  and  _527
REMARK  207  A    between atoms: _527  and  _528
REMARK  208  A    between atoms: _538  and  _540
REMARK  209  A    between atoms: _540  and  _541
REMARK  210  A    between atoms: _540  and  _543
REMARK  211  A    between atoms: _543  and  _544
REMARK  212  A    between atoms: _547  and  _549
REMARK  213  A    between atoms: _549  and  _550
REMARK  214  A    between atoms: _549  and  _552
REMARK  215  A    between atoms: _552  and  _553
REMARK  216  A    between atoms: _558  and  _559
REMARK  217  A    between atoms: _561  and  _563
REMARK  218  A    between atoms: _563  and  _564
REMARK  219  A    between atoms: _563  and  _566
REMARK  220  A    between atoms: _566  and  _567
REMARK  221  A    between atoms: _570  and  _572
REMARK  222  A    between atoms: _572  and  _573
REMARK  223  A    between atoms: _572  and  _575
REMARK  224  A    between atoms: _575  and  _576
REMARK  225  A    between atoms: _576  and  _577
REMARK  226  A    between atoms: _580  and  _582
REMARK  227  A    between atoms: _582  and  _583
REMARK  228  A    between atoms: _582  and  _585
REMARK  229  A    between atoms: _585  and  _586
REMARK  230  A    between atoms: _591  and  _593
REMARK  231  A    between atoms: _593  and  _594
REMARK  232  A    between atoms: _596  and  _598
REMARK  233  A    between atoms: _598  and  _599
REMARK  234  A    between atoms: _598  and  _601
REMARK  235  A    between atoms: _601  and  _602
REMARK  236  A    between atoms: _602  and  _603
REMARK  237  A    between atoms: _605  and  _607
REMARK  238  A    between atoms: _607  and  _608
REMARK  239  A    between atoms: _607  and  _610
REMARK  240  A    between atoms: _610  and  _611
REMARK  241  A    between atoms: _614  and  _616
REMARK  242  A    between atoms: _616  and  _617
REMARK  243  A    between atoms: _616  and  _619
REMARK  244  A    between atoms: _619  and  _620
REMARK  245  A    between atoms: _630  and  _632
REMARK  246  A    between atoms: _632  and  _633
REMARK  247  A    between atoms: _632  and  _635
REMARK  248  A    between atoms: _635  and  _636
REMARK  249  A    between atoms: _638  and  _640
REMARK  250  A    between atoms: _640  and  _641
REMARK  251  A    between atoms: _640  and  _643
REMARK  252  A    between atoms: _643  and  _644
REMARK  253  A    between atoms: _649  and  _651
REMARK  254  A    between atoms: _651  and  _652
REMARK  255  A    between atoms: _651  and  _654
REMARK  256  A    between atoms: _654  and  _655
REMARK  257  A    between atoms: _661  and  _663
REMARK  258  A    between atoms: _663  and  _664
REMARK  259  A    between atoms: _663  and  _666
REMARK  260  A    between atoms: _666  and  _667
REMARK  261  A    between atoms: _667  and  _668
REMARK  262  A    between atoms: _671  and  _673
REMARK  263  A    between atoms: _673  and  _674
REMARK  264  A    between atoms: _673  and  _676
REMARK  265  A    between atoms: _676  and  _677
REMARK  266  A    between atoms: _687  and  _689
REMARK  267  A    between atoms: _689  and  _690
REMARK  268  A    between atoms: _689  and  _692
REMARK  269  A    between atoms: _692  and  _693
REMARK  270  A    between atoms: _696  and  _698
REMARK  271  A    between atoms: _698  and  _699
REMARK  272  A    between atoms: _698  and  _701
REMARK  273  A    between atoms: _701  and  _702
REMARK  274  A    between atoms: _704  and  _706
REMARK  275  A    between atoms: _706  and  _707
REMARK  276  A    between atoms: _706  and  _709
REMARK  277  A    between atoms: _709  and  _710
REMARK  278  A    between atoms: _712  and  _714
REMARK  279  A    between atoms: _714  and  _715
REMARK  280  A    between atoms: _714  and  _717
REMARK  281  A    between atoms: _717  and  _718
REMARK                            x       y       z     vdW  Elec       q    Type
REMARK                         _______ _______ _______ _____ _____    ______ ____
ROOT
ATOM      1  CA  TRP A   3      -1.806   4.996  44.857  0.00  0.00    +0.153 C 
ENDROOT
BRANCH   1   4
ATOM      2  C   ASN A   2      -4.026   5.979  44.513  0.00  0.00    +0.241 C 
ATOM      3  O   ASN A   2      -3.960   6.645  45.544  0.00  0.00    -0.273 OA
ATOM      4  N   TRP A   3      -3.065   5.145  44.111  0.00  0.00    -0.297 N 
ATOM      5  H   TRP A   3      -3.210   4.585  43.247  0.00  0.00    +0.150 HD
BRANCH   2   6
ATOM      6  CA  ASN A   2      -5.257   6.057  43.633  0.00  0.00    +0.158 C 
BRANCH   6   8
ATOM      7  C   SER A   1      -4.168   6.674  41.522  0.00  0.00    +0.241 C 
ATOM      8  N   ASN A   2      -4.976   5.861  42.199  0.00  0.00    -0.297 N 
ATOM      9  H   ASN A   2      -5.422   5.064  41.702  0.00  0.00    +0.150 HD
ATOM     10  O   SER A   1      -3.492   7.547  42.061  0.00  0.00    -0.274 OA
BRANCH   7  11
ATOM     11  CA  SER A   1      -4.073   6.444  39.999  0.00  0.00    +0.174 C 
BRANCH  11  12
ATOM     12  N   SER A   1      -4.287   7.696  39.262  0.00  0.00    -0.236 NA
ATOM     13  H   SER A   1      -3.483   8.156  38.789  0.00  0.00    +0.142 HD
ENDBRANCH  11  12
BRANCH  11  14
ATOM     14  CB  SER A   1      -2.730   5.795  39.625  0.00  0.00    +0.163 C 
BRANCH  14  15
ATOM     15  OG  SER A   1      -2.748   5.378  38.256  0.00  0.00    -0.380 OA
ATOM     16  H   SER A   1      -2.902   6.164  37.675  0.00  0.00    +0.211 HD
ENDBRANCH  14  15
ENDBRANCH  11  14
ENDBRANCH   7  11
ENDBRANCH   6   8
BRANCH   6  17
ATOM     17  CB  ASN A   2      -6.294   5.047  44.137  0.00  0.00    +0.114 C 
BRANCH  17  18
ATOM     18  CG  ASN A   2      -7.674   5.278  43.543  0.00  0.00    +0.222 C 
ATOM     19  ND2 ASN A   2      -8.570   4.313  43.747  0.00  0.00    -0.329 N 
ATOM     20 HD21 ASN A   2      -8.312   3.473  44.302  0.00  0.00    +0.145 HD
ATOM     21 HD22 ASN A   2      -9.528   4.400  43.351  0.00  0.00    +0.145 HD
ATOM     22  OD1 ASN A   2      -7.934   6.286  42.895  0.00  0.00    -0.275 OA
ENDBRANCH  17  18
ENDBRANCH   6  17
ENDBRANCH   2   6
ENDBRANCH   1   4
BRANCH   1  23
ATOM     23  C   TRP A   3      -0.830   6.155  44.673  0.00  0.00    +0.241 C 
ATOM     24  O   TRP A   3       0.151   6.249  45.415  0.00  0.00    -0.273 OA
ATOM     25  N   LEU A   4      -1.076   7.006  43.675  0.00  0.00    -0.297 N 
ATOM     26  H   LEU A   4      -1.993   6.964  43.185  0.00  0.00    +0.150 HD
BRANCH  25  27
ATOM     27  CA  LEU A   4      -0.083   7.999  43.253  0.00  0.00    +0.149 C 
BRANCH  27  28
ATOM     28  C   LEU A   4      -0.350   9.369  43.872  0.00  0.00    +0.241 C 
ATOM     29  N   TYR A   5       0.252   9.595  45.041  0.00  0.00    -0.298 N 
ATOM     30  H   TYR A   5       0.802   8.834  45.488  0.00  0.00    +0.150 HD
ATOM     31  O   LEU A   4      -1.097  10.196  43.318  0.00  0.00    -0.273 OA
BRANCH  29  32
ATOM     32  CA  TYR A   5       0.152  10.895  45.706  0.00  0.00    +0.141 C 
BRANCH  32  33
ATOM     33  C   TYR A   5       1.290  11.767  45.186  0.00  0.00    +0.227 C 
ATOM     34  O   TYR A   5       2.450  11.334  45.165  0.00  0.00    -0.286 OA
ENDBRANCH  32  33
BRANCH  32  35
ATOM     35  CB  TYR A   5       0.264  10.732  47.233  0.00  0.00    +0.054 C 
BRANCH  35  36
ATOM     36  CG  TYR A   5      -0.920  10.014  47.807  0.00  0.00    -0.020 A 
ATOM     37  CD2 TYR A   5      -1.982  10.727  48.364  0.00  0.00    -0.001 A 
ATOM     38  CE2 TYR A   5      -3.100  10.068  48.878  0.00  0.00    +0.036 A 
ATOM     39  CZ  TYR A   5      -3.152   8.682  48.812  0.00  0.00    +0.134 A 
ATOM     40  CE1 TYR A   5      -2.119   7.947  48.242  0.00  0.00    +0.036 A 
ATOM     41  CD1 TYR A   5      -1.003   8.623  47.744  0.00  0.00    -0.001 A 
BRANCH  39  42
ATOM     42  OH  TYR A   5      -4.237   8.008  49.308  0.00  0.00    -0.506 OA
ATOM     43  HH  TYR A   5      -4.107   7.035  49.179  0.00  0.00    +0.292 HD
ENDBRANCH  39  42
ENDBRANCH  35  36
ENDBRANCH  32  35
ENDBRANCH  29  32
ENDBRANCH  27  28
BRANCH  27  44
ATOM     44  CB  LEU A   4       0.032   8.070  41.711  0.00  0.00    +0.029 C 
BRANCH  44  45
ATOM     45  CG  LEU A   4       1.365   8.556  41.114  0.00  0.00    +0.002 C 
ATOM     46  CD2 LEU A   4       1.694   9.971  41.539  0.00  0.00    +0.000 C 
ATOM     47  CD1 LEU A   4       1.336   8.461  39.574  0.00  0.00    +0.000 C 
ENDBRANCH  44  45
ENDBRANCH  27  44
ENDBRANCH  25  27
ENDBRANCH   1  23
BRANCH   1  48
ATOM     48  CB  TRP A   3      -1.106   3.686  44.465  0.00  0.00    +0.057 C 
BRANCH  48  49
ATOM     49  CG  TRP A   3      -0.816   3.593  43.016  0.00  0.00    -0.002 A 
ATOM     50  CD2 TRP A   3       0.342   4.094  42.333  0.00  0.00    +0.013 A 
ATOM     51  CE3 TRP A   3       1.502   4.782  42.748  0.00  0.00    +0.001 A 
ATOM     52  CZ3 TRP A   3       2.458   5.127  41.787  0.00  0.00    +0.000 A 
ATOM     53  CH2 TRP A   3       2.282   4.799  40.432  0.00  0.00    +0.001 A 
ATOM     54  CZ2 TRP A   3       1.154   4.132  39.986  0.00  0.00    +0.017 A 
ATOM     55  CE2 TRP A   3       0.193   3.772  40.954  0.00  0.00    +0.056 A 
ATOM     56  NE1 TRP A   3      -0.998   3.106  40.810  0.00  0.00    -0.352 N 
ATOM     57  HE1 TRP A   3      -1.383   2.746  39.914  0.00  0.00    +0.166 HD
ATOM     58  CD1 TRP A   3      -1.605   2.990  42.050  0.00  0.00    +0.068 A 
ENDBRANCH  48  49
ENDBRANCH   1  48
TORSDOF 21
REMARK  Name = ../refined-set-2016/3f5k/3f5k_pocket.pdb
REMARK  281 active torsions:
REMARK  status: ('A' for Active; 'I' for Inactive)
REMARK    1  A    between atoms: _1  and  _3
REMARK    2  A    between atoms: _3  and  _4
REMARK    3  A    between atoms: _3  and  _6
REMARK    4  A    between atoms: _9  and  _11
REMARK    5  A    between atoms: _11  and  _12
REMARK    6  A    between atoms: _11  and  _14
REMARK    7  A    between atoms: _14  and  _15
REMARK    8  A    between atoms: _18  and  _20
REMARK    9  A    between atoms: _20  and  _21
REMARK   10  A    between atoms: _20  and  _23
REMARK   11  A    between atoms: _23  and  _24
REMARK   12  A    between atoms: _26  and  _28
REMARK   13  A    between atoms: _28  and  _29
REMARK   14  A    between atoms: _32  and  _34
REMARK   15  A    between atoms: _34  and  _35
REMARK   16  A    between atoms: _34  and  _37
REMARK   17  A    between atoms: _37  and  _38
REMARK   18  A    between atoms: _38  and  _39
REMARK   19  A    between atoms: _44  and  _46
REMARK   20  A    between atoms: _46  and  _47
REMARK   21  A    between atoms: _46  and  _49
REMARK   22  A    between atoms: _49  and  _50
REMARK   23  A    between atoms: _50  and  _51
REMARK   24  A    between atoms: _51  and  _52
REMARK   25  A    between atoms: _61  and  _63
REMARK   26  A    between atoms: _63  and  _64
REMARK   27  A    between atoms: _63  and  _66
REMARK   28  A    between atoms: _66  and  _67
REMARK   29  A    between atoms: _72  and  _74
REMARK   30  A    between atoms: _74  and  _75
REMARK   31  A    between atoms: _74  and  _77
REMARK   32  A    between atoms: _77  and  _78
REMARK   33  A    between atoms: _83  and  _85
REMARK   34  A    between atoms: _85  and  _86
REMARK   35  A    between atoms: _85  and  _88
REMARK   36  A    between atoms: _88  and  _89
REMARK   37  A    between atoms: _94  and  _95
REMARK   38  A    between atoms: _97  and  _99
REMARK   39  A    between atoms: _99  and  _100
REMARK   40  A    between atoms: _99  and  _102
REMARK   41  A    between atoms: _102  and  _103
REMARK   42  A    between atoms: _108  and  _110
REMARK   43  A    between atoms: _110  and  _111
REMARK   44  A    between atoms: _110  and  _113
REMARK   45  A    between atoms: _113  and  _114
REMARK   46  A    between atoms: _114  and  _115
REMARK   47  A    between atoms: _120  and  _122
REMARK   48  A    between atoms: _122  and  _123
REMARK   49  A    between atoms: _122  and  _125
REMARK   50  A    between atoms: _125  and  _126
REMARK   51  A    between atoms: _126  and  _127
REMARK   52  A    between atoms: _127  and  _128
REMARK   53  A    between atoms: _137  and  _139
REMARK   54  A    between atoms: _139  and  _140
REMARK   55  A    between atoms: _139  and  _142
REMARK   56  A    between atoms: _142  and  _143
REMARK   57  A    between atoms: _146  and  _148
REMARK   58  A    between atoms: _148  and  _149
REMARK   59  A    between atoms: _148  and  _151
REMARK   60  A    between atoms: _151  and  _152
REMARK   61  A    between atoms: _155  and  _157
REMARK   62  A    between atoms: _157  and  _158
REMARK   63  A    between atoms: _157  and  _160
REMARK   64  A    between atoms: _160  and  _161
REMARK   65  A    between atoms: _164  and  _166
REMARK   66  A    between atoms: _166  and  _167
REMARK   67  A    between atoms: _166  and  _169
REMARK   68  A    between atoms: _169  and  _170
REMARK   69  A    between atoms: _173  and  _175
REMARK   70  A    between atoms: _175  and  _176
REMARK   71  A    between atoms: _175  and  _178
REMARK   72  A    between atoms: _178  and  _179
REMARK   73  A    between atoms: _179  and  _180
REMARK   74  A    between atoms: _185  and  _187
REMARK   75  A    between atoms: _187  and  _188
REMARK   76  A    between atoms: _187  and  _190
REMARK   77  A    between atoms: _190  and  _191
REMARK   78  A    between atoms: _194  and  _196
REMARK   79  A    between atoms: _196  and  _197
REMARK   80  A    between atoms: _196  and  _199
REMARK   81  A    between atoms: _199  and  _200
REMARK   82  A    between atoms: _205  and  _207
REMARK   83  A    between atoms: _207  and  _208
REMARK   84  A    between atoms: _207  and  _210
REMARK   85  A    between atoms: _213  and  _215
REMARK   86  A    between atoms: _215  and  _216
REMARK   87  A    between atoms: _215  and  _218
REMARK   88  A    between atoms: _218  and  _219
REMARK   89  A    between atoms: _222  and  _224
REMARK   90  A    between atoms: _224  and  _225
REMARK   91  A    between atoms: _224  and  _227
REMARK   92  A    between atoms: _227  and  _228
REMARK   93  A    between atoms: _231  and  _233
REMARK   94  A    between atoms: _233  and  _234
REMARK   95  A    between atoms: _233  and  _236
REMARK   96  A    between atoms: _236  and  _237
REMARK   97  A    between atoms: _243  and  _245
REMARK   98  A    between atoms: _245  and  _246
REMARK   99  A    between atoms: _245  and  _248
REMARK  100  A    between atoms: _248  and  _249
REMARK  101  A    between atoms: _254  and  _256
REMARK  102  A    between atoms: _256  and  _257
REMARK  103  A    between atoms: _256  and  _259
REMARK  104  A    between atoms: _259  and  _260
REMARK  105  A    between atoms: _270  and  _272
REMARK  106  A    between atoms: _272  and  _273
REMARK  107  A    between atoms: _272  and  _275
REMARK  108  A    between atoms: _275  and  _276
REMARK  109  A    between atoms: _281  and  _282
REMARK  110  A    between atoms: _284  and  _286
REMARK  111  A    between atoms: _286  and  _287
REMARK  112  A    between atoms: _286  and  _289
REMARK  113  A    between atoms: _289  and  _290
REMARK  114  A    between atoms: _295  and  _297
REMARK  115  A    between atoms: _297  and  _298
REMARK  116  A    between atoms: _297  and  _300
REMARK  117  A    between atoms: _300  and  _301
REMARK  118  A    between atoms: _306  and  _308
REMARK  119  A    between atoms: _308  and  _309
REMARK  120  A    between atoms: _308  and  _311
REMARK  121  A    between atoms: _311  and  _312
REMARK  122  A    between atoms: _312  and  _313
REMARK  123  A    between atoms: _318  and  _320
REMARK  124  A    between atoms: _320  and  _321
REMARK  125  A    between atoms: _320  and  _323
REMARK  126  A    between atoms: _323  and  _324
REMARK  127  A    between atoms: _329  and  _330
REMARK  128  A    between atoms: _332  and  _334
REMARK  129  A    between atoms: _334  and  _335
REMARK  130  A    between atoms: _334  and  _337
REMARK  131  A    between atoms: _337  and  _338
REMARK  132  A    between atoms: _341  and  _343
REMARK  133  A    between atoms: _343  and  _344
REMARK  134  A    between atoms: _347  and  _349
REMARK  135  A    between atoms: _349  and  _350
REMARK  136  A    between atoms: _349  and  _352
REMARK  137  A    between atoms: _352  and  _353
REMARK  138  A    between atoms: _355  and  _357
REMARK  139  A    between atoms: _357  and  _358
REMARK  140  A    between atoms: _357  and  _360
REMARK  141  A    between atoms: _360  and  _361
REMARK  142  A    between atoms: _361  and  _362
REMARK  143  A    between atoms: _364  and  _366
REMARK  144  A    between atoms: _366  and  _367
REMARK  145  A    between atoms: _366  and  _369
REMARK  146  A    between atoms: _369  and  _370
REMARK  147  A    between atoms: _370  and  _371
REMARK  148  A    between atoms: _376  and  _378
REMARK  149  A    between atoms: _378  and  _379
REMARK  150  A    between atoms: _378  and  _381
REMARK  151  A    between atoms: _381  and  _382
REMARK  152  A    between atoms: _384  and  _386
REMARK  153  A    between atoms: _386  and  _387
REMARK  154  A    between atoms: _386  and  _389
REMARK  155  A    between atoms: _389  and  _390
REMARK  156  A    between atoms: _395  and  _396
REMARK  157  A    between atoms: _398  and  _400
REMARK  158  A    between atoms: _400  and  _401
REMARK  159  A    between atoms: _400  and  _403
REMARK  160  A    between atoms: _403  and  _404
REMARK  161  A    between atoms: _406  and  _408
REMARK  162  A    between atoms: _408  and  _409
REMARK  163  A    between atoms: _412  and  _414
REMARK  164  A    between atoms: _414  and  _415
REMARK  165  A    between atoms: _414  and  _417
REMARK  166  A    between atoms: _417  and  _418
REMARK  167  A    between atoms: _428  and  _430
REMARK  168  A    between atoms: _430  and  _431
REMARK  169  A    between atoms: _430  and  _433
REMARK  170  A    between atoms: _433  and  _434
REMARK  171  A    between atoms: _434  and  _435
REMARK  172  A    between atoms: _440  and  _442
REMARK  173  A    between atoms: _442  and  _443
REMARK  174  A    between atoms: _442  and  _445
REMARK  175  A    between atoms: _448  and  _450
REMARK  176  A    between atoms: _450  and  _451
REMARK  177  A    between atoms: _450  and  _453
REMARK  178  A    between atoms: _453  and  _454
REMARK  179  A    between atoms: _457  and  _459
REMARK  180  A    between atoms: _459  and  _460
REMARK  181  A    between atoms: _459  and  _462
REMARK  182  A    between atoms: _462  and  _463
REMARK  183  A    between atoms: _468  and  _469
REMARK  184  A    between atoms: _471  and  _473
REMARK  185  A    between atoms: _473  and  _474
REMARK  186  A    between atoms: _473  and  _476
REMARK  187  A    between atoms: _479  and  _481
REMARK  188  A    between atoms: _481  and  _482
REMARK  189  A    between atoms: _481  and  _484
REMARK  190  A    between atoms: _484  and  _485
REMARK  191  A    between atoms: _491  and  _493
REMARK  192  A    between atoms: _493  and  _494
REMARK  193  A    between atoms: _493  and  _496
REMARK  194  A    between atoms: _496  and  _497
REMARK  195  A    between atoms: _497  and  _498
REMARK  196  A    between atoms: _503  and  _505
REMARK  197  A    between atoms: _505  and  _506
REMARK  198  A    between atoms: _505  and  _508
REMARK  199  A    between atoms: _508  and  _509
REMARK  200  A    between atoms: _511  and  _513
REMARK  201  A    between atoms: _513  and  _514
REMARK  202  A    between atoms: _513  and  _516
REMARK  203  A    between atoms: _516  and  _517
REMARK  204  A    between atoms: _522  and  _524
REMARK  205  A    between atoms: _524  and  _525
REMARK  206  A    between atoms: _524  and  _527
REMARK  207  A    between atoms: _527  and  _528
REMARK  208  A    between atoms: _538  and  _540
REMARK  209  A    between atoms: _540  and  _541
REMARK  210  A    between atoms: _540  and  _543
REMARK  211  A    between atoms: _543  and  _544
REMARK  212  A    between atoms: _547  and  _549
REMARK  213  A    between atoms: _549  and  _550
REMARK  214  A    between atoms: _549  and  _552
REMARK  215  A    between atoms: _552  and  _553
REMARK  216  A    between atoms: _558  and  _559
REMARK  217  A    between atoms: _561  and  _563
REMARK  218  A    between atoms: _563  and  _564
REMARK  219  A    between atoms: _563  and  _566
REMARK  220  A    between atoms: _566  and  _567
REMARK  221  A    between atoms: _570  and  _572
REMARK  222  A    between atoms: _572  and  _573
REMARK  223  A    between atoms: _572  and  _575
REMARK  224  A    between atoms: _575  and  _576
REMARK  225  A    between atoms: _576  and  _577
REMARK  226  A    between atoms: _580  and  _582
REMARK  227  A    between atoms: _582  and  _583
REMARK  228  A    between atoms: _582  and  _585
REMARK  229  A    between atoms: _585  and  _586
REMARK  230  A    between atoms: _591  and  _593
REMARK  231  A    between atoms: _593  and  _594
REMARK  232  A    between atoms: _596  and  _598
REMARK  233  A    between atoms: _598  and  _599
REMARK  234  A    between atoms: _598  and  _601
REMARK  235  A    between atoms: _601  and  _602
REMARK  236  A    between atoms: _602  and  _603
REMARK  237  A    between atoms: _605  and  _607
REMARK  238  A    between atoms: _607  and  _608
REMARK  239  A    between atoms: _607  and  _610
REMARK  240  A    between atoms: _610  and  _611
REMARK  241  A    between atoms: _614  and  _616
REMARK  242  A    between atoms: _616  and  _617
REMARK  243  A    between atoms: _616  and  _619
REMARK  244  A    between atoms: _619  and  _620
REMARK  245  A    between atoms: _630  and  _632
REMARK  246  A    between atoms: _632  and  _633
REMARK  247  A    between atoms: _632  and  _635
REMARK  248  A    between atoms: _635  and  _636
REMARK  249  A    between atoms: _638  and  _640
REMARK  250  A    between atoms: _640  and  _641
REMARK  251  A    between atoms: _640  and  _643
REMARK  252  A    between atoms: _643  and  _644
REMARK  253  A    between atoms: _649  and  _651
REMARK  254  A    between atoms: _651  and  _652
REMARK  255  A    between atoms: _651  and  _654
REMARK  256  A    between atoms: _654  and  _655
REMARK  257  A    between atoms: _661  and  _663
REMARK  258  A    between atoms: _663  and  _664
REMARK  259  A    between atoms: _663  and  _666
REMARK  260  A    between atoms: _666  and  _667
REMARK  261  A    between atoms: _667  and  _668
REMARK  262  A    between atoms: _671  and  _673
REMARK  263  A    between atoms: _673  and  _674
REMARK  264  A    between atoms: _673  and  _676
REMARK  265  A    between atoms: _676  and  _677
REMARK  266  A    between atoms: _687  and  _689
REMARK  267  A    between atoms: _689  and  _690
REMARK  268  A    between atoms: _689  and  _692
REMARK  269  A    between atoms: _692  and  _693
REMARK  270  A    between atoms: _696  and  _698
REMARK  271  A    between atoms: _698  and  _699
REMARK  272  A    between atoms: _698  and  _701
REMARK  273  A    between atoms: _701  and  _702
REMARK  274  A    between atoms: _704  and  _706
REMARK  275  A    between atoms: _706  and  _707
REMARK  276  A    between atoms: _706  and  _709
REMARK  277  A    between atoms: _709  and  _710
REMARK  278  A    between atoms: _712  and  _714
REMARK  279  A    between atoms: _714  and  _715
REMARK  280  A    between atoms: _714  and  _717
REMARK  281  A    between atoms: _717  and  _718
REMARK                            x       y       z     vdW  Elec       q    Type
REMARK                         _______ _______ _______ _____ _____    ______ ____
ROOT
ATOM      1  CA  ASN A   3       8.880   9.260  37.177  0.00  0.00    +0.158 C 
ENDROOT
BRANCH   1   2
ATOM      2  C   ASN A   3       7.808   9.920  36.310  0.00  0.00    +0.241 C 
ATOM      3  N   GLY A   4       6.599  10.077  36.842  0.00  0.00    -0.295 N 
ATOM      4  H   GLY A   4       6.429   9.796  37.829  0.00  0.00    +0.150 HD
ATOM      5  O   ASN A   3       8.072  10.248  35.142  0.00  0.00    -0.273 OA
BRANCH   3   6
ATOM      6  CA  GLY A   4       5.507  10.642  36.048  0.00  0.00    +0.176 C 
BRANCH   6   7
ATOM      7  C   GLY A   4       4.178  10.492  36.761  0.00  0.00    +0.243 C 
ATOM      8  O   GLY A   4       4.109   9.966  37.875  0.00  0.00    -0.273 OA
ATOM      9  N   MET A   5       3.109  10.945  36.111  0.00  0.00    -0.297 N 
ATOM     10  H   MET A   5       3.215  11.351  35.159  0.00  0.00    +0.150 HD
BRANCH   9  11
ATOM     11  CA  MET A   5       1.785  10.874  36.730  0.00  0.00    +0.149 C 
BRANCH  11  12
ATOM     12  C   MET A   5       0.728  10.752  35.648  0.00  0.00    +0.241 C 
ATOM     13  N   ASP A   6      -0.481  10.382  36.053  0.00  0.00    -0.298 N 
ATOM     14  H   ASP A   6      -0.687  10.294  37.069  0.00  0.00    +0.150 HD
ATOM     15  O   MET A   5       1.015  10.981  34.471  0.00  0.00    -0.273 OA
BRANCH  13  16
ATOM     16  CA  ASP A   6      -1.519  10.099  35.068  0.00  0.00    +0.148 C 
BRANCH  16  17
ATOM     17  C   ASP A   6      -2.754  10.988  35.123  0.00  0.00    +0.227 C 
ATOM     18  O   ASP A   6      -3.135  11.493  36.191  0.00  0.00    -0.286 OA
ENDBRANCH  16  17
BRANCH  16  19
ATOM     19  CB  ASP A   6      -1.904   8.610  35.066  0.00  0.00    +0.142 C 
BRANCH  19  20
ATOM     20  CG  ASP A   6      -2.436   8.097  36.413  0.00  0.00    +0.367 C 
ATOM     21  OD2 ASP A   6      -2.191   8.718  37.478  0.00  0.00    -0.246 OA
ATOM     22  OD1 ASP A   6      -3.080   7.007  36.381  0.00  0.00    -0.246 OA
ENDBRANCH  19  20
ENDBRANCH  16  19
ENDBRANCH  13  16
ENDBRANCH  11  12
BRANCH  11  23
ATOM     23  CB  MET A   5       1.488  12.141  37.571  0.00  0.00    +0.041 C 
BRANCH  23  24
ATOM     24  CG  MET A   5       1.646  13.447  36.793  0.00  0.00    +0.060 C 
BRANCH  24  25
ATOM     25  SD  MET A   5       0.630  14.749  37.476  0.00  0.00    -0.139 S 
ATOM     26  CE  MET A   5      -0.974  14.240  36.819  0.00  0.00    +0.069 C 
ENDBRANCH  24  25
ENDBRANCH  23  24
ENDBRANCH  11  23
ENDBRANCH   9  11
ENDBRANCH   6   7
ENDBRANCH   3   6
ENDBRANCH   1   2
BRANCH   1  29
ATOM     27  C   GLU A   2      10.286   7.268  36.757  0.00  0.00    +0.241 C 
ATOM     28  O   GLU A   2      10.596   7.117  37.957  0.00  0.00    -0.273 OA
ATOM     29  N   ASN A   3       9.565   8.287  36.293  0.00  0.00    -0.297 N 
ATOM     30  H   ASN A   3       9.479   8.406  35.263  0.00  0.00    +0.150 HD
BRANCH  27  31
ATOM     31  CA  GLU A   2      10.653   6.252  35.728  0.00  0.00    +0.149 C 
BRANCH  31  33
ATOM     32  C   THR A   1      12.848   5.313  35.050  0.00  0.00    +0.241 C 
ATOM     33  N   GLU A   2      12.065   5.880  35.973  0.00  0.00    -0.297 N 
ATOM     34  H   GLU A   2      12.469   6.070  36.912  0.00  0.00    +0.150 HD
ATOM     35  O   THR A   1      12.425   4.938  33.962  0.00  0.00    -0.274 OA
BRANCH  32  36
ATOM     36  CA  THR A   1      14.327   5.148  35.387  0.00  0.00    +0.172 C 
BRANCH  36  37
ATOM     37  N   THR A   1      14.768   5.841  36.602  0.00  0.00    -0.236 NA
ATOM     38  H   THR A   1      14.690   5.356  37.519  0.00  0.00    +0.142 HD
ENDBRANCH  36  37
BRANCH  36  39
ATOM     39  CB  THR A   1      14.718   3.654  35.449  0.00  0.00    +0.135 C 
ATOM     40  CG2 THR A   1      16.253   3.487  35.154  0.00  0.00    +0.034 C 
BRANCH  39  41
ATOM     41  OG1 THR A   1      14.443   3.160  36.755  0.00  0.00    -0.383 OA
ATOM     42  HG1 THR A   1      13.478   3.262  36.949  0.00  0.00    +0.210 HD
ENDBRANCH  39  41
ENDBRANCH  36  39
ENDBRANCH  32  36
ENDBRANCH  31  33
BRANCH  31  43
ATOM     43  CB  GLU A   2       9.641   5.063  35.857  0.00  0.00    +0.041 C 
BRANCH  43  44
ATOM     44  CG  GLU A   2       9.667   4.022  34.728  0.00  0.00    +0.116 C 
BRANCH  44  45
ATOM     45  CD  GLU A   2       8.728   2.817  34.958  0.00  0.00    +0.365 C 
ATOM     46  OE2 GLU A   2       7.681   2.949  35.656  0.00  0.00    -0.246 OA
ATOM     47  OE1 GLU A   2       9.063   1.707  34.481  0.00  0.00    -0.246 OA
ENDBRANCH  44  45
ENDBRANCH  43  44
ENDBRANCH  31  43
ENDBRANCH  27  31
ENDBRANCH   1  29
BRANCH   1  48
ATOM     48  CB  ASN A   3       9.908  10.276  37.705  0.00  0.00    +0.114 C 
BRANCH  48  49
ATOM     49  CG  ASN A   3       9.291  11.364  38.598  0.00  0.00    +0.222 C 
ATOM     50  ND2 ASN A   3       8.505  10.975  39.654  0.00  0.00    -0.329 N 
ATOM     51 HD21 ASN A   3       8.064  11.691  40.265  0.00  0.00    +0.145 HD
ATOM     52 HD22 ASN A   3       8.351   9.964  39.843  0.00  0.00    +0.145 HD
ATOM     53  OD1 ASN A   3       9.509  12.540  38.326  0.00  0.00    -0.275 OA
ENDBRANCH  48  49
ENDBRANCH   1  48
TORSDOF 24
REMARK  Name = ../refined-set-2016/3f5k/3f5k_pocket.pdb
REMARK  281 active torsions:
REMARK  status: ('A' for Active; 'I' for Inactive)
REMARK    1  A    between atoms: _1  and  _3
REMARK    2  A    between atoms: _3  and  _4
REMARK    3  A    between atoms: _3  and  _6
REMARK    4  A    between atoms: _9  and  _11
REMARK    5  A    between atoms: _11  and  _12
REMARK    6  A    between atoms: _11  and  _14
REMARK    7  A    between atoms: _14  and  _15
REMARK    8  A    between atoms: _18  and  _20
REMARK    9  A    between atoms: _20  and  _21
REMARK   10  A    between atoms: _20  and  _23
REMARK   11  A    between atoms: _23  and  _24
REMARK   12  A    between atoms: _26  and  _28
REMARK   13  A    between atoms: _28  and  _29
REMARK   14  A    between atoms: _32  and  _34
REMARK   15  A    between atoms: _34  and  _35
REMARK   16  A    between atoms: _34  and  _37
REMARK   17  A    between atoms: _37  and  _38
REMARK   18  A    between atoms: _38  and  _39
REMARK   19  A    between atoms: _44  and  _46
REMARK   20  A    between atoms: _46  and  _47
REMARK   21  A    between atoms: _46  and  _49
REMARK   22  A    between atoms: _49  and  _50
REMARK   23  A    between atoms: _50  and  _51
REMARK   24  A    between atoms: _51  and  _52
REMARK   25  A    between atoms: _61  and  _63
REMARK   26  A    between atoms: _63  and  _64
REMARK   27  A    between atoms: _63  and  _66
REMARK   28  A    between atoms: _66  and  _67
REMARK   29  A    between atoms: _72  and  _74
REMARK   30  A    between atoms: _74  and  _75
REMARK   31  A    between atoms: _74  and  _77
REMARK   32  A    between atoms: _77  and  _78
REMARK   33  A    between atoms: _83  and  _85
REMARK   34  A    between atoms: _85  and  _86
REMARK   35  A    between atoms: _85  and  _88
REMARK   36  A    between atoms: _88  and  _89
REMARK   37  A    between atoms: _94  and  _95
REMARK   38  A    between atoms: _97  and  _99
REMARK   39  A    between atoms: _99  and  _100
REMARK   40  A    between atoms: _99  and  _102
REMARK   41  A    between atoms: _102  and  _103
REMARK   42  A    between atoms: _108  and  _110
REMARK   43  A    between atoms: _110  and  _111
REMARK   44  A    between atoms: _110  and  _113
REMARK   45  A    between atoms: _113  and  _114
REMARK   46  A    between atoms: _114  and  _115
REMARK   47  A    between atoms: _120  and  _122
REMARK   48  A    between atoms: _122  and  _123
REMARK   49  A    between atoms: _122  and  _125
REMARK   50  A    between atoms: _125  and  _126
REMARK   51  A    between atoms: _126  and  _127
REMARK   52  A    between atoms: _127  and  _128
REMARK   53  A    between atoms: _137  and  _139
REMARK   54  A    between atoms: _139  and  _140
REMARK   55  A    between atoms: _139  and  _142
REMARK   56  A    between atoms: _142  and  _143
REMARK   57  A    between atoms: _146  and  _148
REMARK   58  A    between atoms: _148  and  _149
REMARK   59  A    between atoms: _148  and  _151
REMARK   60  A    between atoms: _151  and  _152
REMARK   61  A    between atoms: _155  and  _157
REMARK   62  A    between atoms: _157  and  _158
REMARK   63  A    between atoms: _157  and  _160
REMARK   64  A    between atoms: _160  and  _161
REMARK   65  A    between atoms: _164  and  _166
REMARK   66  A    between atoms: _166  and  _167
REMARK   67  A    between atoms: _166  and  _169
REMARK   68  A    between atoms: _169  and  _170
REMARK   69  A    between atoms: _173  and  _175
REMARK   70  A    between atoms: _175  and  _176
REMARK   71  A    between atoms: _175  and  _178
REMARK   72  A    between atoms: _178  and  _179
REMARK   73  A    between atoms: _179  and  _180
REMARK   74  A    between atoms: _185  and  _187
REMARK   75  A    between atoms: _187  and  _188
REMARK   76  A    between atoms: _187  and  _190
REMARK   77  A    between atoms: _190  and  _191
REMARK   78  A    between atoms: _194  and  _196
REMARK   79  A    between atoms: _196  and  _197
REMARK   80  A    between atoms: _196  and  _199
REMARK   81  A    between atoms: _199  and  _200
REMARK   82  A    between atoms: _205  and  _207
REMARK   83  A    between atoms: _207  and  _208
REMARK   84  A    between atoms: _207  and  _210
REMARK   85  A    between atoms: _213  and  _215
REMARK   86  A    between atoms: _215  and  _216
REMARK   87  A    between atoms: _215  and  _218
REMARK   88  A    between atoms: _218  and  _219
REMARK   89  A    between atoms: _222  and  _224
REMARK   90  A    between atoms: _224  and  _225
REMARK   91  A    between atoms: _224  and  _227
REMARK   92  A    between atoms: _227  and  _228
REMARK   93  A    between atoms: _231  and  _233
REMARK   94  A    between atoms: _233  and  _234
REMARK   95  A    between atoms: _233  and  _236
REMARK   96  A    between atoms: _236  and  _237
REMARK   97  A    between atoms: _243  and  _245
REMARK   98  A    between atoms: _245  and  _246
REMARK   99  A    between atoms: _245  and  _248
REMARK  100  A    between atoms: _248  and  _249
REMARK  101  A    between atoms: _254  and  _256
REMARK  102  A    between atoms: _256  and  _257
REMARK  103  A    between atoms: _256  and  _259
REMARK  104  A    between atoms: _259  and  _260
REMARK  105  A    between atoms: _270  and  _272
REMARK  106  A    between atoms: _272  and  _273
REMARK  107  A    between atoms: _272  and  _275
REMARK  108  A    between atoms: _275  and  _276
REMARK  109  A    between atoms: _281  and  _282
REMARK  110  A    between atoms: _284  and  _286
REMARK  111  A    between atoms: _286  and  _287
REMARK  112  A    between atoms: _286  and  _289
REMARK  113  A    between atoms: _289  and  _290
REMARK  114  A    between atoms: _295  and  _297
REMARK  115  A    between atoms: _297  and  _298
REMARK  116  A    between atoms: _297  and  _300
REMARK  117  A    between atoms: _300  and  _301
REMARK  118  A    between atoms: _306  and  _308
REMARK  119  A    between atoms: _308  and  _309
REMARK  120  A    between atoms: _308  and  _311
REMARK  121  A    between atoms: _311  and  _312
REMARK  122  A    between atoms: _312  and  _313
REMARK  123  A    between atoms: _318  and  _320
REMARK  124  A    between atoms: _320  and  _321
REMARK  125  A    between atoms: _320  and  _323
REMARK  126  A    between atoms: _323  and  _324
REMARK  127  A    between atoms: _329  and  _330
REMARK  128  A    between atoms: _332  and  _334
REMARK  129  A    between atoms: _334  and  _335
REMARK  130  A    between atoms: _334  and  _337
REMARK  131  A    between atoms: _337  and  _338
REMARK  132  A    between atoms: _341  and  _343
REMARK  133  A    between atoms: _343  and  _344
REMARK  134  A    between atoms: _347  and  _349
REMARK  135  A    between atoms: _349  and  _350
REMARK  136  A    between atoms: _349  and  _352
REMARK  137  A    between atoms: _352  and  _353
REMARK  138  A    between atoms: _355  and  _357
REMARK  139  A    between atoms: _357  and  _358
REMARK  140  A    between atoms: _357  and  _360
REMARK  141  A    between atoms: _360  and  _361
REMARK  142  A    between atoms: _361  and  _362
REMARK  143  A    between atoms: _364  and  _366
REMARK  144  A    between atoms: _366  and  _367
REMARK  145  A    between atoms: _366  and  _369
REMARK  146  A    between atoms: _369  and  _370
REMARK  147  A    between atoms: _370  and  _371
REMARK  148  A    between atoms: _376  and  _378
REMARK  149  A    between atoms: _378  and  _379
REMARK  150  A    between atoms: _378  and  _381
REMARK  151  A    between atoms: _381  and  _382
REMARK  152  A    between atoms: _384  and  _386
REMARK  153  A    between atoms: _386  and  _387
REMARK  154  A    between atoms: _386  and  _389
REMARK  155  A    between atoms: _389  and  _390
REMARK  156  A    between atoms: _395  and  _396
REMARK  157  A    between atoms: _398  and  _400
REMARK  158  A    between atoms: _400  and  _401
REMARK  159  A    between atoms: _400  and  _403
REMARK  160  A    between atoms: _403  and  _404
REMARK  161  A    between atoms: _406  and  _408
REMARK  162  A    between atoms: _408  and  _409
REMARK  163  A    between atoms: _412  and  _414
REMARK  164  A    between atoms: _414  and  _415
REMARK  165  A    between atoms: _414  and  _417
REMARK  166  A    between atoms: _417  and  _418
REMARK  167  A    between atoms: _428  and  _430
REMARK  168  A    between atoms: _430  and  _431
REMARK  169  A    between atoms: _430  and  _433
REMARK  170  A    between atoms: _433  and  _434
REMARK  171  A    between atoms: _434  and  _435
REMARK  172  A    between atoms: _440  and  _442
REMARK  173  A    between atoms: _442  and  _443
REMARK  174  A    between atoms: _442  and  _445
REMARK  175  A    between atoms: _448  and  _450
REMARK  176  A    between atoms: _450  and  _451
REMARK  177  A    between atoms: _450  and  _453
REMARK  178  A    between atoms: _453  and  _454
REMARK  179  A    between atoms: _457  and  _459
REMARK  180  A    between atoms: _459  and  _460
REMARK  181  A    between atoms: _459  and  _462
REMARK  182  A    between atoms: _462  and  _463
REMARK  183  A    between atoms: _468  and  _469
REMARK  184  A    between atoms: _471  and  _473
REMARK  185  A    between atoms: _473  and  _474
REMARK  186  A    between atoms: _473  and  _476
REMARK  187  A    between atoms: _479  and  _481
REMARK  188  A    between atoms: _481  and  _482
REMARK  189  A    between atoms: _481  and  _484
REMARK  190  A    between atoms: _484  and  _485
REMARK  191  A    between atoms: _491  and  _493
REMARK  192  A    between atoms: _493  and  _494
REMARK  193  A    between atoms: _493  and  _496
REMARK  194  A    between atoms: _496  and  _497
REMARK  195  A    between atoms: _497  and  _498
REMARK  196  A    between atoms: _503  and  _505
REMARK  197  A    between atoms: _505  and  _506
REMARK  198  A    between atoms: _505  and  _508
REMARK  199  A    between atoms: _508  and  _509
REMARK  200  A    between atoms: _511  and  _513
REMARK  201  A    between atoms: _513  and  _514
REMARK  202  A    between atoms: _513  and  _516
REMARK  203  A    between atoms: _516  and  _517
REMARK  204  A    between atoms: _522  and  _524
REMARK  205  A    between atoms: _524  and  _525
REMARK  206  A    between atoms: _524  and  _527
REMARK  207  A    between atoms: _527  and  _528
REMARK  208  A    between atoms: _538  and  _540
REMARK  209  A    between atoms: _540  and  _541
REMARK  210  A    between atoms: _540  and  _543
REMARK  211  A    between atoms: _543  and  _544
REMARK  212  A    between atoms: _547  and  _549
REMARK  213  A    between atoms: _549  and  _550
REMARK  214  A    between atoms: _549  and  _552
REMARK  215  A    between atoms: _552  and  _553
REMARK  216  A    between atoms: _558  and  _559
REMARK  217  A    between atoms: _561  and  _563
REMARK  218  A    between atoms: _563  and  _564
REMARK  219  A    between atoms: _563  and  _566
REMARK  220  A    between atoms: _566  and  _567
REMARK  221  A    between atoms: _570  and  _572
REMARK  222  A    between atoms: _572  and  _573
REMARK  223  A    between atoms: _572  and  _575
REMARK  224  A    between atoms: _575  and  _576
REMARK  225  A    between atoms: _576  and  _577
REMARK  226  A    between atoms: _580  and  _582
REMARK  227  A    between atoms: _582  and  _583
REMARK  228  A    between atoms: _582  and  _585
REMARK  229  A    between atoms: _585  and  _586
REMARK  230  A    between atoms: _591  and  _593
REMARK  231  A    between atoms: _593  and  _594
REMARK  232  A    between atoms: _596  and  _598
REMARK  233  A    between atoms: _598  and  _599
REMARK  234  A    between atoms: _598  and  _601
REMARK  235  A    between atoms: _601  and  _602
REMARK  236  A    between atoms: _602  and  _603
REMARK  237  A    between atoms: _605  and  _607
REMARK  238  A    between atoms: _607  and  _608
REMARK  239  A    between atoms: _607  and  _610
REMARK  240  A    between atoms: _610  and  _611
REMARK  241  A    between atoms: _614  and  _616
REMARK  242  A    between atoms: _616  and  _617
REMARK  243  A    between atoms: _616  and  _619
REMARK  244  A    between atoms: _619  and  _620
REMARK  245  A    between atoms: _630  and  _632
REMARK  246  A    between atoms: _632  and  _633
REMARK  247  A    between atoms: _632  and  _635
REMARK  248  A    between atoms: _635  and  _636
REMARK  249  A    between atoms: _638  and  _640
REMARK  250  A    between atoms: _640  and  _641
REMARK  251  A    between atoms: _640  and  _643
REMARK  252  A    between atoms: _643  and  _644
REMARK  253  A    between atoms: _649  and  _651
REMARK  254  A    between atoms: _651  and  _652
REMARK  255  A    between atoms: _651  and  _654
REMARK  256  A    between atoms: _654  and  _655
REMARK  257  A    between atoms: _661  and  _663
REMARK  258  A    between atoms: _663  and  _664
REMARK  259  A    between atoms: _663  and  _666
REMARK  260  A    between atoms: _666  and  _667
REMARK  261  A    between atoms: _667  and  _668
REMARK  262  A    between atoms: _671  and  _673
REMARK  263  A    between atoms: _673  and  _674
REMARK  264  A    between atoms: _673  and  _676
REMARK  265  A    between atoms: _676  and  _677
REMARK  266  A    between atoms: _687  and  _689
REMARK  267  A    between atoms: _689  and  _690
REMARK  268  A    between atoms: _689  and  _692
REMARK  269  A    between atoms: _692  and  _693
REMARK  270  A    between atoms: _696  and  _698
REMARK  271  A    between atoms: _698  and  _699
REMARK  272  A    between atoms: _698  and  _701
REMARK  273  A    between atoms: _701  and  _702
REMARK  274  A    between atoms: _704  and  _706
REMARK  275  A    between atoms: _706  and  _707
REMARK  276  A    between atoms: _706  and  _709
REMARK  277  A    between atoms: _709  and  _710
REMARK  278  A    between atoms: _712  and  _714
REMARK  279  A    between atoms: _714  and  _715
REMARK  280  A    between atoms: _714  and  _717
REMARK  281  A    between atoms: _717  and  _718
REMARK                            x       y       z     vdW  Elec       q    Type
REMARK                         _______ _______ _______ _____ _____    ______ ____
ROOT
ATOM      1  CA  TRP A   1       7.278   7.645  32.410  0.00  0.00    +0.149 C 
ENDROOT
BRANCH   1   2
ATOM      2  C   TRP A   1       5.993   8.463  32.127  0.00  0.00    +0.239 C 
ATOM      3  O   TRP A   1       5.506   9.106  33.047  0.00  0.00    -0.274 OA
ATOM      4  N   SER A   2       5.456   8.495  30.891  0.00  0.00    -0.296 N 
ATOM      5  H   SER A   2       4.618   9.095  30.754  0.00  0.00    +0.150 HD
BRANCH   4   6
ATOM      6  CA  SER A   2       5.944   7.765  29.731  0.00  0.00    +0.166 C 
BRANCH   6   7
ATOM      7  C   SER A   2       6.064   8.708  28.544  0.00  0.00    +0.229 C 
ATOM      8  O   SER A   2       5.493   9.808  28.551  0.00  0.00    -0.286 OA
ENDBRANCH   6   7
BRANCH   6   9
ATOM      9  CB  SER A   2       4.921   6.664  29.377  0.00  0.00    +0.165 C 
BRANCH   9  10
ATOM     10  OG  SER A   2       5.281   5.960  28.187  0.00  0.00    -0.380 OA
ATOM     11  H   SER A   2       6.165   5.532  28.313  0.00  0.00    +0.211 HD
ENDBRANCH   9  10
ENDBRANCH   6   9
ENDBRANCH   4   6
ENDBRANCH   1   2
BRANCH   1  12
ATOM     12  N   TRP A   1       8.344   8.604  32.787  0.00  0.00    -0.238 NA
ATOM     13  H   TRP A   1       8.445   8.897  33.780  0.00  0.00    +0.142 HD
ENDBRANCH   1  12
BRANCH   1  14
ATOM     14  CB  TRP A   1       7.018   6.592  33.515  0.00  0.00    +0.054 C 
BRANCH  14  15
ATOM     15  CG  TRP A   1       5.926   5.654  33.008  0.00  0.00    -0.002 A 
ATOM     16  CD1 TRP A   1       4.564   5.836  33.120  0.00  0.00    +0.068 A 
ATOM     17  NE1 TRP A   1       3.898   4.816  32.460  0.00  0.00    -0.352 N 
ATOM     18  HE1 TRP A   1       2.865   4.713  32.395  0.00  0.00    +0.166 HD
ATOM     19  CE2 TRP A   1       4.820   3.962  31.906  0.00  0.00    +0.056 A 
ATOM     20  CZ2 TRP A   1       4.627   2.801  31.137  0.00  0.00    +0.017 A 
ATOM     21  CH2 TRP A   1       5.746   2.137  30.701  0.00  0.00    +0.001 A 
ATOM     22  CZ3 TRP A   1       7.051   2.595  31.012  0.00  0.00    +0.000 A 
ATOM     23  CE3 TRP A   1       7.244   3.749  31.769  0.00  0.00    +0.001 A 
ATOM     24  CD2 TRP A   1       6.109   4.464  32.215  0.00  0.00    +0.013 A 
ENDBRANCH  14  15
ENDBRANCH   1  14
TORSDOF 8
REMARK  Name = ../refined-set-2016/3f5k/3f5k_pocket.pdb
REMARK  281 active torsions:
REMARK  status: ('A' for Active; 'I' for Inactive)
REMARK    1  A    between atoms: _1  and  _3
REMARK    2  A    between atoms: _3  and  _4
REMARK    3  A    between atoms: _3  and  _6
REMARK    4  A    between atoms: _9  and  _11
REMARK    5  A    between atoms: _11  and  _12
REMARK    6  A    between atoms: _11  and  _14
REMARK    7  A    between atoms: _14  and  _15
REMARK    8  A    between atoms: _18  and  _20
REMARK    9  A    between atoms: _20  and  _21
REMARK   10  A    between atoms: _20  and  _23
REMARK   11  A    between atoms: _23  and  _24
REMARK   12  A    between atoms: _26  and  _28
REMARK   13  A    between atoms: _28  and  _29
REMARK   14  A    between atoms: _32  and  _34
REMARK   15  A    between atoms: _34  and  _35
REMARK   16  A    between atoms: _34  and  _37
REMARK   17  A    between atoms: _37  and  _38
REMARK   18  A    between atoms: _38  and  _39
REMARK   19  A    between atoms: _44  and  _46
REMARK   20  A    between atoms: _46  and  _47
REMARK   21  A    between atoms: _46  and  _49
REMARK   22  A    between atoms: _49  and  _50
REMARK   23  A    between atoms: _50  and  _51
REMARK   24  A    between atoms: _51  and  _52
REMARK   25  A    between atoms: _61  and  _63
REMARK   26  A    between atoms: _63  and  _64
REMARK   27  A    between atoms: _63  and  _66
REMARK   28  A    between atoms: _66  and  _67
REMARK   29  A    between atoms: _72  and  _74
REMARK   30  A    between atoms: _74  and  _75
REMARK   31  A    between atoms: _74  and  _77
REMARK   32  A    between atoms: _77  and  _78
REMARK   33  A    between atoms: _83  and  _85
REMARK   34  A    between atoms: _85  and  _86
REMARK   35  A    between atoms: _85  and  _88
REMARK   36  A    between atoms: _88  and  _89
REMARK   37  A    between atoms: _94  and  _95
REMARK   38  A    between atoms: _97  and  _99
REMARK   39  A    between atoms: _99  and  _100
REMARK   40  A    between atoms: _99  and  _102
REMARK   41  A    between atoms: _102  and  _103
REMARK   42  A    between atoms: _108  and  _110
REMARK   43  A    between atoms: _110  and  _111
REMARK   44  A    between atoms: _110  and  _113
REMARK   45  A    between atoms: _113  and  _114
REMARK   46  A    between atoms: _114  and  _115
REMARK   47  A    between atoms: _120  and  _122
REMARK   48  A    between atoms: _122  and  _123
REMARK   49  A    between atoms: _122  and  _125
REMARK   50  A    between atoms: _125  and  _126
REMARK   51  A    between atoms: _126  and  _127
REMARK   52  A    between atoms: _127  and  _128
REMARK   53  A    between atoms: _137  and  _139
REMARK   54  A    between atoms: _139  and  _140
REMARK   55  A    between atoms: _139  and  _142
REMARK   56  A    between atoms: _142  and  _143
REMARK   57  A    between atoms: _146  and  _148
REMARK   58  A    between atoms: _148  and  _149
REMARK   59  A    between atoms: _148  and  _151
REMARK   60  A    between atoms: _151  and  _152
REMARK   61  A    between atoms: _155  and  _157
REMARK   62  A    between atoms: _157  and  _158
REMARK   63  A    between atoms: _157  and  _160
REMARK   64  A    between atoms: _160  and  _161
REMARK   65  A    between atoms: _164  and  _166
REMARK   66  A    between atoms: _166  and  _167
REMARK   67  A    between atoms: _166  and  _169
REMARK   68  A    between atoms: _169  and  _170
REMARK   69  A    between atoms: _173  and  _175
REMARK   70  A    between atoms: _175  and  _176
REMARK   71  A    between atoms: _175  and  _178
REMARK   72  A    between atoms: _178  and  _179
REMARK   73  A    between atoms: _179  and  _180
REMARK   74  A    between atoms: _185  and  _187
REMARK   75  A    between atoms: _187  and  _188
REMARK   76  A    between atoms: _187  and  _190
REMARK   77  A    between atoms: _190  and  _191
REMARK   78  A    between atoms: _194  and  _196
REMARK   79  A    between atoms: _196  and  _197
REMARK   80  A    between atoms: _196  and  _199
REMARK   81  A    between atoms: _199  and  _200
REMARK   82  A    between atoms: _205  and  _207
REMARK   83  A    between atoms: _207  and  _208
REMARK   84  A    between atoms: _207  and  _210
REMARK   85  A    between atoms: _213  and  _215
REMARK   86  A    between atoms: _215  and  _216
REMARK   87  A    between atoms: _215  and  _218
REMARK   88  A    between atoms: _218  and  _219
REMARK   89  A    between atoms: _222  and  _224
REMARK   90  A    between atoms: _224  and  _225
REMARK   91  A    between atoms: _224  and  _227
REMARK   92  A    between atoms: _227  and  _228
REMARK   93  A    between atoms: _231  and  _233
REMARK   94  A    between atoms: _233  and  _234
REMARK   95  A    between atoms: _233  and  _236
REMARK   96  A    between atoms: _236  and  _237
REMARK   97  A    between atoms: _243  and  _245
REMARK   98  A    between atoms: _245  and  _246
REMARK   99  A    between atoms: _245  and  _248
REMARK  100  A    between atoms: _248  and  _249
REMARK  101  A    between atoms: _254  and  _256
REMARK  102  A    between atoms: _256  and  _257
REMARK  103  A    between atoms: _256  and  _259
REMARK  104  A    between atoms: _259  and  _260
REMARK  105  A    between atoms: _270  and  _272
REMARK  106  A    between atoms: _272  and  _273
REMARK  107  A    between atoms: _272  and  _275
REMARK  108  A    between atoms: _275  and  _276
REMARK  109  A    between atoms: _281  and  _282
REMARK  110  A    between atoms: _284  and  _286
REMARK  111  A    between atoms: _286  and  _287
REMARK  112  A    between atoms: _286  and  _289
REMARK  113  A    between atoms: _289  and  _290
REMARK  114  A    between atoms: _295  and  _297
REMARK  115  A    between atoms: _297  and  _298
REMARK  116  A    between atoms: _297  and  _300
REMARK  117  A    between atoms: _300  and  _301
REMARK  118  A    between atoms: _306  and  _308
REMARK  119  A    between atoms: _308  and  _309
REMARK  120  A    between atoms: _308  and  _311
REMARK  121  A    between atoms: _311  and  _312
REMARK  122  A    between atoms: _312  and  _313
REMARK  123  A    between atoms: _318  and  _320
REMARK  124  A    between atoms: _320  and  _321
REMARK  125  A    between atoms: _320  and  _323
REMARK  126  A    between atoms: _323  and  _324
REMARK  127  A    between atoms: _329  and  _330
REMARK  128  A    between atoms: _332  and  _334
REMARK  129  A    between atoms: _334  and  _335
REMARK  130  A    between atoms: _334  and  _337
REMARK  131  A    between atoms: _337  and  _338
REMARK  132  A    between atoms: _341  and  _343
REMARK  133  A    between atoms: _343  and  _344
REMARK  134  A    between atoms: _347  and  _349
REMARK  135  A    between atoms: _349  and  _350
REMARK  136  A    between atoms: _349  and  _352
REMARK  137  A    between atoms: _352  and  _353
REMARK  138  A    between atoms: _355  and  _357
REMARK  139  A    between atoms: _357  and  _358
REMARK  140  A    between atoms: _357  and  _360
REMARK  141  A    between atoms: _360  and  _361
REMARK  142  A    between atoms: _361  and  _362
REMARK  143  A    between atoms: _364  and  _366
REMARK  144  A    between atoms: _366  and  _367
REMARK  145  A    between atoms: _366  and  _369
REMARK  146  A    between atoms: _369  and  _370
REMARK  147  A    between atoms: _370  and  _371
REMARK  148  A    between atoms: _376  and  _378
REMARK  149  A    between atoms: _378  and  _379
REMARK  150  A    between atoms: _378  and  _381
REMARK  151  A    between atoms: _381  and  _382
REMARK  152  A    between atoms: _384  and  _386
REMARK  153  A    between atoms: _386  and  _387
REMARK  154  A    between atoms: _386  and  _389
REMARK  155  A    between atoms: _389  and  _390
REMARK  156  A    between atoms: _395  and  _396
REMARK  157  A    between atoms: _398  and  _400
REMARK  158  A    between atoms: _400  and  _401
REMARK  159  A    between atoms: _400  and  _403
REMARK  160  A    between atoms: _403  and  _404
REMARK  161  A    between atoms: _406  and  _408
REMARK  162  A    between atoms: _408  and  _409
REMARK  163  A    between atoms: _412  and  _414
REMARK  164  A    between atoms: _414  and  _415
REMARK  165  A    between atoms: _414  and  _417
REMARK  166  A    between atoms: _417  and  _418
REMARK  167  A    between atoms: _428  and  _430
REMARK  168  A    between atoms: _430  and  _431
REMARK  169  A    between atoms: _430  and  _433
REMARK  170  A    between atoms: _433  and  _434
REMARK  171  A    between atoms: _434  and  _435
REMARK  172  A    between atoms: _440  and  _442
REMARK  173  A    between atoms: _442  and  _443
REMARK  174  A    between atoms: _442  and  _445
REMARK  175  A    between atoms: _448  and  _450
REMARK  176  A    between atoms: _450  and  _451
REMARK  177  A    between atoms: _450  and  _453
REMARK  178  A    between atoms: _453  and  _454
REMARK  179  A    between atoms: _457  and  _459
REMARK  180  A    between atoms: _459  and  _460
REMARK  181  A    between atoms: _459  and  _462
REMARK  182  A    between atoms: _462  and  _463
REMARK  183  A    between atoms: _468  and  _469
REMARK  184  A    between atoms: _471  and  _473
REMARK  185  A    between atoms: _473  and  _474
REMARK  186  A    between atoms: _473  and  _476
REMARK  187  A    between atoms: _479  and  _481
REMARK  188  A    between atoms: _481  and  _482
REMARK  189  A    between atoms: _481  and  _484
REMARK  190  A    between atoms: _484  and  _485
REMARK  191  A    between atoms: _491  and  _493
REMARK  192  A    between atoms: _493  and  _494
REMARK  193  A    between atoms: _493  and  _496
REMARK  194  A    between atoms: _496  and  _497
REMARK  195  A    between atoms: _497  and  _498
REMARK  196  A    between atoms: _503  and  _505
REMARK  197  A    between atoms: _505  and  _506
REMARK  198  A    between atoms: _505  and  _508
REMARK  199  A    between atoms: _508  and  _509
REMARK  200  A    between atoms: _511  and  _513
REMARK  201  A    between atoms: _513  and  _514
REMARK  202  A    between atoms: _513  and  _516
REMARK  203  A    between atoms: _516  and  _517
REMARK  204  A    between atoms: _522  and  _524
REMARK  205  A    between atoms: _524  and  _525
REMARK  206  A    between atoms: _524  and  _527
REMARK  207  A    between atoms: _527  and  _528
REMARK  208  A    between atoms: _538  and  _540
REMARK  209  A    between atoms: _540  and  _541
REMARK  210  A    between atoms: _540  and  _543
REMARK  211  A    between atoms: _543  and  _544
REMARK  212  A    between atoms: _547  and  _549
REMARK  213  A    between atoms: _549  and  _550
REMARK  214  A    between atoms: _549  and  _552
REMARK  215  A    between atoms: _552  and  _553
REMARK  216  A    between atoms: _558  and  _559
REMARK  217  A    between atoms: _561  and  _563
REMARK  218  A    between atoms: _563  and  _564
REMARK  219  A    between atoms: _563  and  _566
REMARK  220  A    between atoms: _566  and  _567
REMARK  221  A    between atoms: _570  and  _572
REMARK  222  A    between atoms: _572  and  _573
REMARK  223  A    between atoms: _572  and  _575
REMARK  224  A    between atoms: _575  and  _576
REMARK  225  A    between atoms: _576  and  _577
REMARK  226  A    between atoms: _580  and  _582
REMARK  227  A    between atoms: _582  and  _583
REMARK  228  A    between atoms: _582  and  _585
REMARK  229  A    between atoms: _585  and  _586
REMARK  230  A    between atoms: _591  and  _593
REMARK  231  A    between atoms: _593  and  _594
REMARK  232  A    between atoms: _596  and  _598
REMARK  233  A    between atoms: _598  and  _599
REMARK  234  A    between atoms: _598  and  _601
REMARK  235  A    between atoms: _601  and  _602
REMARK  236  A    between atoms: _602  and  _603
REMARK  237  A    between atoms: _605  and  _607
REMARK  238  A    between atoms: _607  and  _608
REMARK  239  A    between atoms: _607  and  _610
REMARK  240  A    between atoms: _610  and  _611
REMARK  241  A    between atoms: _614  and  _616
REMARK  242  A    between atoms: _616  and  _617
REMARK  243  A    between atoms: _616  and  _619
REMARK  244  A    between atoms: _619  and  _620
REMARK  245  A    between atoms: _630  and  _632
REMARK  246  A    between atoms: _632  and  _633
REMARK  247  A    between atoms: _632  and  _635
REMARK  248  A    between atoms: _635  and  _636
REMARK  249  A    between atoms: _638  and  _640
REMARK  250  A    between atoms: _640  and  _641
REMARK  251  A    between atoms: _640  and  _643
REMARK  252  A    between atoms: _643  and  _644
REMARK  253  A    between atoms: _649  and  _651
REMARK  254  A    between atoms: _651  and  _652
REMARK  255  A    between atoms: _651  and  _654
REMARK  256  A    between atoms: _654  and  _655
REMARK  257  A    between atoms: _661  and  _663
REMARK  258  A    between atoms: _663  and  _664
REMARK  259  A    between atoms: _663  and  _666
REMARK  260  A    between atoms: _666  and  _667
REMARK  261  A    between atoms: _667  and  _668
REMARK  262  A    between atoms: _671  and  _673
REMARK  263  A    between atoms: _673  and  _674
REMARK  264  A    between atoms: _673  and  _676
REMARK  265  A    between atoms: _676  and  _677
REMARK  266  A    between atoms: _687  and  _689
REMARK  267  A    between atoms: _689  and  _690
REMARK  268  A    between atoms: _689  and  _692
REMARK  269  A    between atoms: _692  and  _693
REMARK  270  A    between atoms: _696  and  _698
REMARK  271  A    between atoms: _698  and  _699
REMARK  272  A    between atoms: _698  and  _701
REMARK  273  A    between atoms: _701  and  _702
REMARK  274  A    between atoms: _704  and  _706
REMARK  275  A    between atoms: _706  and  _707
REMARK  276  A    between atoms: _706  and  _709
REMARK  277  A    between atoms: _709  and  _710
REMARK  278  A    between atoms: _712  and  _714
REMARK  279  A    between atoms: _714  and  _715
REMARK  280  A    between atoms: _714  and  _717
REMARK  281  A    between atoms: _717  and  _718
REMARK                            x       y       z     vdW  Elec       q    Type
REMARK                         _______ _______ _______ _____ _____    ______ ____
ROOT
ATOM      1  C   GLU A   3      -2.067  -0.352  32.696  0.00  0.00    +0.241 C 
ATOM      2  O   GLU A   3      -2.842  -0.193  33.661  0.00  0.00    -0.273 OA
ATOM      3  N   TRP A   4      -1.613  -1.544  32.314  0.00  0.00    -0.297 N 
ATOM      4  H   TRP A   4      -1.010  -1.585  31.468  0.00  0.00    +0.150 HD
ENDROOT
BRANCH   3   5
ATOM      5  CA  TRP A   4      -1.906  -2.804  33.007  0.00  0.00    +0.153 C 
BRANCH   5   6
ATOM      6  C   TRP A   4      -3.403  -2.957  33.410  0.00  0.00    +0.241 C 
ATOM      7  N   LEU A   5      -3.723  -3.078  34.708  0.00  0.00    -0.297 N 
ATOM      8  H   LEU A   5      -2.980  -3.019  35.434  0.00  0.00    +0.150 HD
ATOM      9  O   TRP A   4      -4.253  -2.923  32.541  0.00  0.00    -0.273 OA
BRANCH   7  10
ATOM     10  CA  LEU A   5      -5.138  -3.296  35.110  0.00  0.00    +0.149 C 
BRANCH  10  11
ATOM     11  C   LEU A   5      -6.069  -2.138  34.723  0.00  0.00    +0.241 C 
ATOM     12  N   SER A   6      -5.506  -0.929  34.597  0.00  0.00    -0.296 N 
ATOM     13  H   SER A   6      -4.485  -0.839  34.775  0.00  0.00    +0.150 HD
ATOM     14  O   LEU A   5      -7.255  -2.341  34.540  0.00  0.00    -0.273 OA
BRANCH  12  15
ATOM     15  CA  SER A   6      -6.261   0.280  34.219  0.00  0.00    +0.166 C 
BRANCH  15  16
ATOM     16  C   SER A   6      -6.504   0.361  32.717  0.00  0.00    +0.229 C 
ATOM     17  O   SER A   6      -7.243   1.232  32.249  0.00  0.00    -0.286 OA
ENDBRANCH  15  16
BRANCH  15  18
ATOM     18  CB  SER A   6      -5.502   1.517  34.680  0.00  0.00    +0.165 C 
BRANCH  18  19
ATOM     19  OG  SER A   6      -5.490   1.554  36.088  0.00  0.00    -0.380 OA
ATOM     20  H   SER A   6      -4.997   2.357  36.392  0.00  0.00    +0.211 HD
ENDBRANCH  18  19
ENDBRANCH  15  18
ENDBRANCH  12  15
ENDBRANCH  10  11
BRANCH  10  21
ATOM     21  CB  LEU A   5      -5.256  -3.557  36.630  0.00  0.00    +0.029 C 
BRANCH  21  22
ATOM     22  CG  LEU A   5      -4.554  -4.800  37.189  0.00  0.00    +0.002 C 
ATOM     23  CD2 LEU A   5      -4.804  -4.909  38.702  0.00  0.00    +0.000 C 
ATOM     24  CD1 LEU A   5      -4.998  -6.031  36.469  0.00  0.00    +0.000 C 
ENDBRANCH  21  22
ENDBRANCH  10  21
ENDBRANCH   7  10
ENDBRANCH   5   6
BRANCH   5  25
ATOM     25  CB  TRP A   4      -0.950  -2.968  34.197  0.00  0.00    +0.057 C 
BRANCH  25  26
ATOM     26  CG  TRP A   4       0.481  -2.772  33.793  0.00  0.00    -0.002 A 
ATOM     27  CD1 TRP A   4       1.348  -1.801  34.237  0.00  0.00    +0.068 A 
ATOM     28  NE1 TRP A   4       2.568  -1.952  33.625  0.00  0.00    -0.352 N 
ATOM     29  HE1 TRP A   4       3.399  -1.347  33.782  0.00  0.00    +0.166 HD
ATOM     30  CE2 TRP A   4       2.518  -3.029  32.773  0.00  0.00    +0.056 A 
ATOM     31  CZ2 TRP A   4       3.511  -3.582  31.945  0.00  0.00    +0.017 A 
ATOM     32  CH2 TRP A   4       3.184  -4.687  31.192  0.00  0.00    +0.001 A 
ATOM     33  CZ3 TRP A   4       1.894  -5.252  31.250  0.00  0.00    +0.000 A 
ATOM     34  CE3 TRP A   4       0.900  -4.704  32.085  0.00  0.00    +0.001 A 
ATOM     35  CD2 TRP A   4       1.213  -3.568  32.851  0.00  0.00    +0.013 A 
ENDBRANCH  25  26
ENDBRANCH   5  25
ENDBRANCH   3   5
BRANCH   1  36
ATOM     36  CA  GLU A   3      -1.570   0.846  31.849  0.00  0.00    +0.149 C 
BRANCH  36  38
ATOM     37  C   PHE A   2      -1.243   0.253  29.522  0.00  0.00    +0.241 C 
ATOM     38  N   GLU A   3      -2.014   0.782  30.464  0.00  0.00    -0.297 N 
ATOM     39  H   GLU A   3      -2.950   1.157  30.209  0.00  0.00    +0.150 HD
ATOM     40  O   PHE A   2      -0.170  -0.298  29.765  0.00  0.00    -0.273 OA
BRANCH  37  41
ATOM     41  CA  PHE A   2      -1.741   0.338  28.090  0.00  0.00    +0.153 C 
BRANCH  41  44
ATOM     42  C   ASN A   1      -1.188   2.622  27.511  0.00  0.00    +0.239 C 
ATOM     43  O   ASN A   1      -2.151   3.063  28.169  0.00  0.00    -0.274 OA
ATOM     44  N   PHE A   2      -0.928   1.313  27.393  0.00  0.00    -0.297 N 
ATOM     45  H   PHE A   2      -0.137   0.995  26.797  0.00  0.00    +0.150 HD
BRANCH  42  46
ATOM     46  CA  ASN A   1      -0.290   3.580  26.709  0.00  0.00    +0.154 C 
BRANCH  46  47
ATOM     47  N   ASN A   1      -0.461   4.969  27.106  0.00  0.00    -0.238 NA
ATOM     48  H   ASN A   1      -0.791   5.206  28.063  0.00  0.00    +0.142 HD
ENDBRANCH  46  47
BRANCH  46  49
ATOM     49  CB  ASN A   1       1.199   3.194  26.757  0.00  0.00    +0.111 C 
BRANCH  49  50
ATOM     50  CG  ASN A   1       1.794   3.319  28.151  0.00  0.00    +0.221 C 
ATOM     51  OD1 ASN A   1       1.314   2.686  29.093  0.00  0.00    -0.275 OA
ATOM     52  ND2 ASN A   1       2.859   4.133  28.292  0.00  0.00    -0.329 N 
ATOM     53 HD21 ASN A   1       3.308   4.245  29.223  0.00  0.00    +0.145 HD
ATOM     54 HD22 ASN A   1       3.232   4.649  27.469  0.00  0.00    +0.145 HD
ENDBRANCH  49  50
ENDBRANCH  46  49
ENDBRANCH  42  46
ENDBRANCH  41  44
BRANCH  41  55
ATOM     55  CB  PHE A   2      -1.573  -1.033  27.407  0.00  0.00    +0.055 C 
BRANCH  55  56
ATOM     56  CG  PHE A   2      -2.292  -2.133  28.087  0.00  0.00    -0.020 A 
ATOM     57  CD2 PHE A   2      -1.591  -3.042  28.868  0.00  0.00    -0.004 A 
ATOM     58  CE2 PHE A   2      -2.276  -4.093  29.536  0.00  0.00    -0.000 A 
ATOM     59  CZ  PHE A   2      -3.658  -4.206  29.393  0.00  0.00    -0.000 A 
ATOM     60  CE1 PHE A   2      -4.343  -3.307  28.606  0.00  0.00    -0.000 A 
ATOM     61  CD1 PHE A   2      -3.673  -2.264  27.958  0.00  0.00    -0.004 A 
ENDBRANCH  55  56
ENDBRANCH  41  55
ENDBRANCH  37  41
ENDBRANCH  36  38
BRANCH  36  62
ATOM     62  CB  GLU A   3      -1.965   2.219  32.454  0.00  0.00    +0.041 C 
BRANCH  62  63
ATOM     63  CG  GLU A   3      -1.567   2.427  33.920  0.00  0.00    +0.116 C 
BRANCH  63  64
ATOM     64  CD  GLU A   3      -0.082   2.214  34.225  0.00  0.00    +0.365 C 
ATOM     65  OE2 GLU A   3       0.226   1.845  35.387  0.00  0.00    -0.246 OA
ATOM     66  OE1 GLU A   3       0.779   2.430  33.348  0.00  0.00    -0.246 OA
ENDBRANCH  63  64
ENDBRANCH  62  63
ENDBRANCH  36  62
ENDBRANCH   1  36
TORSDOF 25
REMARK  Name = ../refined-set-2016/3f5k/3f5k_pocket.pdb
REMARK  281 active torsions:
REMARK  status: ('A' for Active; 'I' for Inactive)
REMARK    1  A    between atoms: _1  and  _3
REMARK    2  A    between atoms: _3  and  _4
REMARK    3  A    between atoms: _3  and  _6
REMARK    4  A    between atoms: _9  and  _11
REMARK    5  A    between atoms: _11  and  _12
REMARK    6  A    between atoms: _11  and  _14
REMARK    7  A    between atoms: _14  and  _15
REMARK    8  A    between atoms: _18  and  _20
REMARK    9  A    between atoms: _20  and  _21
REMARK   10  A    between atoms: _20  and  _23
REMARK   11  A    between atoms: _23  and  _24
REMARK   12  A    between atoms: _26  and  _28
REMARK   13  A    between atoms: _28  and  _29
REMARK   14  A    between atoms: _32  and  _34
REMARK   15  A    between atoms: _34  and  _35
REMARK   16  A    between atoms: _34  and  _37
REMARK   17  A    between atoms: _37  and  _38
REMARK   18  A    between atoms: _38  and  _39
REMARK   19  A    between atoms: _44  and  _46
REMARK   20  A    between atoms: _46  and  _47
REMARK   21  A    between atoms: _46  and  _49
REMARK   22  A    between atoms: _49  and  _50
REMARK   23  A    between atoms: _50  and  _51
REMARK   24  A    between atoms: _51  and  _52
REMARK   25  A    between atoms: _61  and  _63
REMARK   26  A    between atoms: _63  and  _64
REMARK   27  A    between atoms: _63  and  _66
REMARK   28  A    between atoms: _66  and  _67
REMARK   29  A    between atoms: _72  and  _74
REMARK   30  A    between atoms: _74  and  _75
REMARK   31  A    between atoms: _74  and  _77
REMARK   32  A    between atoms: _77  and  _78
REMARK   33  A    between atoms: _83  and  _85
REMARK   34  A    between atoms: _85  and  _86
REMARK   35  A    between atoms: _85  and  _88
REMARK   36  A    between atoms: _88  and  _89
REMARK   37  A    between atoms: _94  and  _95
REMARK   38  A    between atoms: _97  and  _99
REMARK   39  A    between atoms: _99  and  _100
REMARK   40  A    between atoms: _99  and  _102
REMARK   41  A    between atoms: _102  and  _103
REMARK   42  A    between atoms: _108  and  _110
REMARK   43  A    between atoms: _110  and  _111
REMARK   44  A    between atoms: _110  and  _113
REMARK   45  A    between atoms: _113  and  _114
REMARK   46  A    between atoms: _114  and  _115
REMARK   47  A    between atoms: _120  and  _122
REMARK   48  A    between atoms: _122  and  _123
REMARK   49  A    between atoms: _122  and  _125
REMARK   50  A    between atoms: _125  and  _126
REMARK   51  A    between atoms: _126  and  _127
REMARK   52  A    between atoms: _127  and  _128
REMARK   53  A    between atoms: _137  and  _139
REMARK   54  A    between atoms: _139  and  _140
REMARK   55  A    between atoms: _139  and  _142
REMARK   56  A    between atoms: _142  and  _143
REMARK   57  A    between atoms: _146  and  _148
REMARK   58  A    between atoms: _148  and  _149
REMARK   59  A    between atoms: _148  and  _151
REMARK   60  A    between atoms: _151  and  _152
REMARK   61  A    between atoms: _155  and  _157
REMARK   62  A    between atoms: _157  and  _158
REMARK   63  A    between atoms: _157  and  _160
REMARK   64  A    between atoms: _160  and  _161
REMARK   65  A    between atoms: _164  and  _166
REMARK   66  A    between atoms: _166  and  _167
REMARK   67  A    between atoms: _166  and  _169
REMARK   68  A    between atoms: _169  and  _170
REMARK   69  A    between atoms: _173  and  _175
REMARK   70  A    between atoms: _175  and  _176
REMARK   71  A    between atoms: _175  and  _178
REMARK   72  A    between atoms: _178  and  _179
REMARK   73  A    between atoms: _179  and  _180
REMARK   74  A    between atoms: _185  and  _187
REMARK   75  A    between atoms: _187  and  _188
REMARK   76  A    between atoms: _187  and  _190
REMARK   77  A    between atoms: _190  and  _191
REMARK   78  A    between atoms: _194  and  _196
REMARK   79  A    between atoms: _196  and  _197
REMARK   80  A    between atoms: _196  and  _199
REMARK   81  A    between atoms: _199  and  _200
REMARK   82  A    between atoms: _205  and  _207
REMARK   83  A    between atoms: _207  and  _208
REMARK   84  A    between atoms: _207  and  _210
REMARK   85  A    between atoms: _213  and  _215
REMARK   86  A    between atoms: _215  and  _216
REMARK   87  A    between atoms: _215  and  _218
REMARK   88  A    between atoms: _218  and  _219
REMARK   89  A    between atoms: _222  and  _224
REMARK   90  A    between atoms: _224  and  _225
REMARK   91  A    between atoms: _224  and  _227
REMARK   92  A    between atoms: _227  and  _228
REMARK   93  A    between atoms: _231  and  _233
REMARK   94  A    between atoms: _233  and  _234
REMARK   95  A    between atoms: _233  and  _236
REMARK   96  A    between atoms: _236  and  _237
REMARK   97  A    between atoms: _243  and  _245
REMARK   98  A    between atoms: _245  and  _246
REMARK   99  A    between atoms: _245  and  _248
REMARK  100  A    between atoms: _248  and  _249
REMARK  101  A    between atoms: _254  and  _256
REMARK  102  A    between atoms: _256  and  _257
REMARK  103  A    between atoms: _256  and  _259
REMARK  104  A    between atoms: _259  and  _260
REMARK  105  A    between atoms: _270  and  _272
REMARK  106  A    between atoms: _272  and  _273
REMARK  107  A    between atoms: _272  and  _275
REMARK  108  A    between atoms: _275  and  _276
REMARK  109  A    between atoms: _281  and  _282
REMARK  110  A    between atoms: _284  and  _286
REMARK  111  A    between atoms: _286  and  _287
REMARK  112  A    between atoms: _286  and  _289
REMARK  113  A    between atoms: _289  and  _290
REMARK  114  A    between atoms: _295  and  _297
REMARK  115  A    between atoms: _297  and  _298
REMARK  116  A    between atoms: _297  and  _300
REMARK  117  A    between atoms: _300  and  _301
REMARK  118  A    between atoms: _306  and  _308
REMARK  119  A    between atoms: _308  and  _309
REMARK  120  A    between atoms: _308  and  _311
REMARK  121  A    between atoms: _311  and  _312
REMARK  122  A    between atoms: _312  and  _313
REMARK  123  A    between atoms: _318  and  _320
REMARK  124  A    between atoms: _320  and  _321
REMARK  125  A    between atoms: _320  and  _323
REMARK  126  A    between atoms: _323  and  _324
REMARK  127  A    between atoms: _329  and  _330
REMARK  128  A    between atoms: _332  and  _334
REMARK  129  A    between atoms: _334  and  _335
REMARK  130  A    between atoms: _334  and  _337
REMARK  131  A    between atoms: _337  and  _338
REMARK  132  A    between atoms: _341  and  _343
REMARK  133  A    between atoms: _343  and  _344
REMARK  134  A    between atoms: _347  and  _349
REMARK  135  A    between atoms: _349  and  _350
REMARK  136  A    between atoms: _349  and  _352
REMARK  137  A    between atoms: _352  and  _353
REMARK  138  A    between atoms: _355  and  _357
REMARK  139  A    between atoms: _357  and  _358
REMARK  140  A    between atoms: _357  and  _360
REMARK  141  A    between atoms: _360  and  _361
REMARK  142  A    between atoms: _361  and  _362
REMARK  143  A    between atoms: _364  and  _366
REMARK  144  A    between atoms: _366  and  _367
REMARK  145  A    between atoms: _366  and  _369
REMARK  146  A    between atoms: _369  and  _370
REMARK  147  A    between atoms: _370  and  _371
REMARK  148  A    between atoms: _376  and  _378
REMARK  149  A    between atoms: _378  and  _379
REMARK  150  A    between atoms: _378  and  _381
REMARK  151  A    between atoms: _381  and  _382
REMARK  152  A    between atoms: _384  and  _386
REMARK  153  A    between atoms: _386  and  _387
REMARK  154  A    between atoms: _386  and  _389
REMARK  155  A    between atoms: _389  and  _390
REMARK  156  A    between atoms: _395  and  _396
REMARK  157  A    between atoms: _398  and  _400
REMARK  158  A    between atoms: _400  and  _401
REMARK  159  A    between atoms: _400  and  _403
REMARK  160  A    between atoms: _403  and  _404
REMARK  161  A    between atoms: _406  and  _408
REMARK  162  A    between atoms: _408  and  _409
REMARK  163  A    between atoms: _412  and  _414
REMARK  164  A    between atoms: _414  and  _415
REMARK  165  A    between atoms: _414  and  _417
REMARK  166  A    between atoms: _417  and  _418
REMARK  167  A    between atoms: _428  and  _430
REMARK  168  A    between atoms: _430  and  _431
REMARK  169  A    between atoms: _430  and  _433
REMARK  170  A    between atoms: _433  and  _434
REMARK  171  A    between atoms: _434  and  _435
REMARK  172  A    between atoms: _440  and  _442
REMARK  173  A    between atoms: _442  and  _443
REMARK  174  A    between atoms: _442  and  _445
REMARK  175  A    between atoms: _448  and  _450
REMARK  176  A    between atoms: _450  and  _451
REMARK  177  A    between atoms: _450  and  _453
REMARK  178  A    between atoms: _453  and  _454
REMARK  179  A    between atoms: _457  and  _459
REMARK  180  A    between atoms: _459  and  _460
REMARK  181  A    between atoms: _459  and  _462
REMARK  182  A    between atoms: _462  and  _463
REMARK  183  A    between atoms: _468  and  _469
REMARK  184  A    between atoms: _471  and  _473
REMARK  185  A    between atoms: _473  and  _474
REMARK  186  A    between atoms: _473  and  _476
REMARK  187  A    between atoms: _479  and  _481
REMARK  188  A    between atoms: _481  and  _482
REMARK  189  A    between atoms: _481  and  _484
REMARK  190  A    between atoms: _484  and  _485
REMARK  191  A    between atoms: _491  and  _493
REMARK  192  A    between atoms: _493  and  _494
REMARK  193  A    between atoms: _493  and  _496
REMARK  194  A    between atoms: _496  and  _497
REMARK  195  A    between atoms: _497  and  _498
REMARK  196  A    between atoms: _503  and  _505
REMARK  197  A    between atoms: _505  and  _506
REMARK  198  A    between atoms: _505  and  _508
REMARK  199  A    between atoms: _508  and  _509
REMARK  200  A    between atoms: _511  and  _513
REMARK  201  A    between atoms: _513  and  _514
REMARK  202  A    between atoms: _513  and  _516
REMARK  203  A    between atoms: _516  and  _517
REMARK  204  A    between atoms: _522  and  _524
REMARK  205  A    between atoms: _524  and  _525
REMARK  206  A    between atoms: _524  and  _527
REMARK  207  A    between atoms: _527  and  _528
REMARK  208  A    between atoms: _538  and  _540
REMARK  209  A    between atoms: _540  and  _541
REMARK  210  A    between atoms: _540  and  _543
REMARK  211  A    between atoms: _543  and  _544
REMARK  212  A    between atoms: _547  and  _549
REMARK  213  A    between atoms: _549  and  _550
REMARK  214  A    between atoms: _549  and  _552
REMARK  215  A    between atoms: _552  and  _553
REMARK  216  A    between atoms: _558  and  _559
REMARK  217  A    between atoms: _561  and  _563
REMARK  218  A    between atoms: _563  and  _564
REMARK  219  A    between atoms: _563  and  _566
REMARK  220  A    between atoms: _566  and  _567
REMARK  221  A    between atoms: _570  and  _572
REMARK  222  A    between atoms: _572  and  _573
REMARK  223  A    between atoms: _572  and  _575
REMARK  224  A    between atoms: _575  and  _576
REMARK  225  A    between atoms: _576  and  _577
REMARK  226  A    between atoms: _580  and  _582
REMARK  227  A    between atoms: _582  and  _583
REMARK  228  A    between atoms: _582  and  _585
REMARK  229  A    between atoms: _585  and  _586
REMARK  230  A    between atoms: _591  and  _593
REMARK  231  A    between atoms: _593  and  _594
REMARK  232  A    between atoms: _596  and  _598
REMARK  233  A    between atoms: _598  and  _599
REMARK  234  A    between atoms: _598  and  _601
REMARK  235  A    between atoms: _601  and  _602
REMARK  236  A    between atoms: _602  and  _603
REMARK  237  A    between atoms: _605  and  _607
REMARK  238  A    between atoms: _607  and  _608
REMARK  239  A    between atoms: _607  and  _610
REMARK  240  A    between atoms: _610  and  _611
REMARK  241  A    between atoms: _614  and  _616
REMARK  242  A    between atoms: _616  and  _617
REMARK  243  A    between atoms: _616  and  _619
REMARK  244  A    between atoms: _619  and  _620
REMARK  245  A    between atoms: _630  and  _632
REMARK  246  A    between atoms: _632  and  _633
REMARK  247  A    between atoms: _632  and  _635
REMARK  248  A    between atoms: _635  and  _636
REMARK  249  A    between atoms: _638  and  _640
REMARK  250  A    between atoms: _640  and  _641
REMARK  251  A    between atoms: _640  and  _643
REMARK  252  A    between atoms: _643  and  _644
REMARK  253  A    between atoms: _649  and  _651
REMARK  254  A    between atoms: _651  and  _652
REMARK  255  A    between atoms: _651  and  _654
REMARK  256  A    between atoms: _654  and  _655
REMARK  257  A    between atoms: _661  and  _663
REMARK  258  A    between atoms: _663  and  _664
REMARK  259  A    between atoms: _663  and  _666
REMARK  260  A    between atoms: _666  and  _667
REMARK  261  A    between atoms: _667  and  _668
REMARK  262  A    between atoms: _671  and  _673
REMARK  263  A    between atoms: _673  and  _674
REMARK  264  A    between atoms: _673  and  _676
REMARK  265  A    between atoms: _676  and  _677
REMARK  266  A    between atoms: _687  and  _689
REMARK  267  A    between atoms: _689  and  _690
REMARK  268  A    between atoms: _689  and  _692
REMARK  269  A    between atoms: _692  and  _693
REMARK  270  A    between atoms: _696  and  _698
REMARK  271  A    between atoms: _698  and  _699
REMARK  272  A    between atoms: _698  and  _701
REMARK  273  A    between atoms: _701  and  _702
REMARK  274  A    between atoms: _704  and  _706
REMARK  275  A    between atoms: _706  and  _707
REMARK  276  A    between atoms: _706  and  _709
REMARK  277  A    between atoms: _709  and  _710
REMARK  278  A    between atoms: _712  and  _714
REMARK  279  A    between atoms: _714  and  _715
REMARK  280  A    between atoms: _714  and  _717
REMARK  281  A    between atoms: _717  and  _718
REMARK                            x       y       z     vdW  Elec       q    Type
REMARK                         _______ _______ _______ _____ _____    ______ ____
ROOT
ATOM      1  CA  SER A   1      -4.908   5.921  32.777  0.00  0.00    +0.163 C 
ENDROOT
BRANCH   1   2
ATOM      2  N   SER A   1      -5.951   5.149  32.093  0.00  0.00    -0.237 NA
ATOM      3  H   SER A   1      -5.661   4.341  31.505  0.00  0.00    +0.142 HD
ENDBRANCH   1   2
BRANCH   1   4
ATOM      4  C   SER A   1      -3.933   6.476  31.737  0.00  0.00    +0.227 C 
ATOM      5  O   SER A   1      -3.371   5.734  30.961  0.00  0.00    -0.287 OA
ENDBRANCH   1   4
BRANCH   1   6
ATOM      6  CB  SER A   1      -4.157   5.044  33.791  0.00  0.00    +0.162 C 
BRANCH   6   7
ATOM      7  OG  SER A   1      -2.906   5.638  34.155  0.00  0.00    -0.380 OA
ATOM      8  H   SER A   1      -3.069   6.526  34.562  0.00  0.00    +0.211 HD
ENDBRANCH   6   7
ENDBRANCH   1   6
TORSDOF 4
REMARK  Name = ../refined-set-2016/3f5k/3f5k_pocket.pdb
REMARK  281 active torsions:
REMARK  status: ('A' for Active; 'I' for Inactive)
REMARK    1  A    between atoms: _1  and  _3
REMARK    2  A    between atoms: _3  and  _4
REMARK    3  A    between atoms: _3  and  _6
REMARK    4  A    between atoms: _9  and  _11
REMARK    5  A    between atoms: _11  and  _12
REMARK    6  A    between atoms: _11  and  _14
REMARK    7  A    between atoms: _14  and  _15
REMARK    8  A    between atoms: _18  and  _20
REMARK    9  A    between atoms: _20  and  _21
REMARK   10  A    between atoms: _20  and  _23
REMARK   11  A    between atoms: _23  and  _24
REMARK   12  A    between atoms: _26  and  _28
REMARK   13  A    between atoms: _28  and  _29
REMARK   14  A    between atoms: _32  and  _34
REMARK   15  A    between atoms: _34  and  _35
REMARK   16  A    between atoms: _34  and  _37
REMARK   17  A    between atoms: _37  and  _38
REMARK   18  A    between atoms: _38  and  _39
REMARK   19  A    between atoms: _44  and  _46
REMARK   20  A    between atoms: _46  and  _47
REMARK   21  A    between atoms: _46  and  _49
REMARK   22  A    between atoms: _49  and  _50
REMARK   23  A    between atoms: _50  and  _51
REMARK   24  A    between atoms: _51  and  _52
REMARK   25  A    between atoms: _61  and  _63
REMARK   26  A    between atoms: _63  and  _64
REMARK   27  A    between atoms: _63  and  _66
REMARK   28  A    between atoms: _66  and  _67
REMARK   29  A    between atoms: _72  and  _74
REMARK   30  A    between atoms: _74  and  _75
REMARK   31  A    between atoms: _74  and  _77
REMARK   32  A    between atoms: _77  and  _78
REMARK   33  A    between atoms: _83  and  _85
REMARK   34  A    between atoms: _85  and  _86
REMARK   35  A    between atoms: _85  and  _88
REMARK   36  A    between atoms: _88  and  _89
REMARK   37  A    between atoms: _94  and  _95
REMARK   38  A    between atoms: _97  and  _99
REMARK   39  A    between atoms: _99  and  _100
REMARK   40  A    between atoms: _99  and  _102
REMARK   41  A    between atoms: _102  and  _103
REMARK   42  A    between atoms: _108  and  _110
REMARK   43  A    between atoms: _110  and  _111
REMARK   44  A    between atoms: _110  and  _113
REMARK   45  A    between atoms: _113  and  _114
REMARK   46  A    between atoms: _114  and  _115
REMARK   47  A    between atoms: _120  and  _122
REMARK   48  A    between atoms: _122  and  _123
REMARK   49  A    between atoms: _122  and  _125
REMARK   50  A    between atoms: _125  and  _126
REMARK   51  A    between atoms: _126  and  _127
REMARK   52  A    between atoms: _127  and  _128
REMARK   53  A    between atoms: _137  and  _139
REMARK   54  A    between atoms: _139  and  _140
REMARK   55  A    between atoms: _139  and  _142
REMARK   56  A    between atoms: _142  and  _143
REMARK   57  A    between atoms: _146  and  _148
REMARK   58  A    between atoms: _148  and  _149
REMARK   59  A    between atoms: _148  and  _151
REMARK   60  A    between atoms: _151  and  _152
REMARK   61  A    between atoms: _155  and  _157
REMARK   62  A    between atoms: _157  and  _158
REMARK   63  A    between atoms: _157  and  _160
REMARK   64  A    between atoms: _160  and  _161
REMARK   65  A    between atoms: _164  and  _166
REMARK   66  A    between atoms: _166  and  _167
REMARK   67  A    between atoms: _166  and  _169
REMARK   68  A    between atoms: _169  and  _170
REMARK   69  A    between atoms: _173  and  _175
REMARK   70  A    between atoms: _175  and  _176
REMARK   71  A    between atoms: _175  and  _178
REMARK   72  A    between atoms: _178  and  _179
REMARK   73  A    between atoms: _179  and  _180
REMARK   74  A    between atoms: _185  and  _187
REMARK   75  A    between atoms: _187  and  _188
REMARK   76  A    between atoms: _187  and  _190
REMARK   77  A    between atoms: _190  and  _191
REMARK   78  A    between atoms: _194  and  _196
REMARK   79  A    between atoms: _196  and  _197
REMARK   80  A    between atoms: _196  and  _199
REMARK   81  A    between atoms: _199  and  _200
REMARK   82  A    between atoms: _205  and  _207
REMARK   83  A    between atoms: _207  and  _208
REMARK   84  A    between atoms: _207  and  _210
REMARK   85  A    between atoms: _213  and  _215
REMARK   86  A    between atoms: _215  and  _216
REMARK   87  A    between atoms: _215  and  _218
REMARK   88  A    between atoms: _218  and  _219
REMARK   89  A    between atoms: _222  and  _224
REMARK   90  A    between atoms: _224  and  _225
REMARK   91  A    between atoms: _224  and  _227
REMARK   92  A    between atoms: _227  and  _228
REMARK   93  A    between atoms: _231  and  _233
REMARK   94  A    between atoms: _233  and  _234
REMARK   95  A    between atoms: _233  and  _236
REMARK   96  A    between atoms: _236  and  _237
REMARK   97  A    between atoms: _243  and  _245
REMARK   98  A    between atoms: _245  and  _246
REMARK   99  A    between atoms: _245  and  _248
REMARK  100  A    between atoms: _248  and  _249
REMARK  101  A    between atoms: _254  and  _256
REMARK  102  A    between atoms: _256  and  _257
REMARK  103  A    between atoms: _256  and  _259
REMARK  104  A    between atoms: _259  and  _260
REMARK  105  A    between atoms: _270  and  _272
REMARK  106  A    between atoms: _272  and  _273
REMARK  107  A    between atoms: _272  and  _275
REMARK  108  A    between atoms: _275  and  _276
REMARK  109  A    between atoms: _281  and  _282
REMARK  110  A    between atoms: _284  and  _286
REMARK  111  A    between atoms: _286  and  _287
REMARK  112  A    between atoms: _286  and  _289
REMARK  113  A    between atoms: _289  and  _290
REMARK  114  A    between atoms: _295  and  _297
REMARK  115  A    between atoms: _297  and  _298
REMARK  116  A    between atoms: _297  and  _300
REMARK  117  A    between atoms: _300  and  _301
REMARK  118  A    between atoms: _306  and  _308
REMARK  119  A    between atoms: _308  and  _309
REMARK  120  A    between atoms: _308  and  _311
REMARK  121  A    between atoms: _311  and  _312
REMARK  122  A    between atoms: _312  and  _313
REMARK  123  A    between atoms: _318  and  _320
REMARK  124  A    between atoms: _320  and  _321
REMARK  125  A    between atoms: _320  and  _323
REMARK  126  A    between atoms: _323  and  _324
REMARK  127  A    between atoms: _329  and  _330
REMARK  128  A    between atoms: _332  and  _334
REMARK  129  A    between atoms: _334  and  _335
REMARK  130  A    between atoms: _334  and  _337
REMARK  131  A    between atoms: _337  and  _338
REMARK  132  A    between atoms: _341  and  _343
REMARK  133  A    between atoms: _343  and  _344
REMARK  134  A    between atoms: _347  and  _349
REMARK  135  A    between atoms: _349  and  _350
REMARK  136  A    between atoms: _349  and  _352
REMARK  137  A    between atoms: _352  and  _353
REMARK  138  A    between atoms: _355  and  _357
REMARK  139  A    between atoms: _357  and  _358
REMARK  140  A    between atoms: _357  and  _360
REMARK  141  A    between atoms: _360  and  _361
REMARK  142  A    between atoms: _361  and  _362
REMARK  143  A    between atoms: _364  and  _366
REMARK  144  A    between atoms: _366  and  _367
REMARK  145  A    between atoms: _366  and  _369
REMARK  146  A    between atoms: _369  and  _370
REMARK  147  A    between atoms: _370  and  _371
REMARK  148  A    between atoms: _376  and  _378
REMARK  149  A    between atoms: _378  and  _379
REMARK  150  A    between atoms: _378  and  _381
REMARK  151  A    between atoms: _381  and  _382
REMARK  152  A    between atoms: _384  and  _386
REMARK  153  A    between atoms: _386  and  _387
REMARK  154  A    between atoms: _386  and  _389
REMARK  155  A    between atoms: _389  and  _390
REMARK  156  A    between atoms: _395  and  _396
REMARK  157  A    between atoms: _398  and  _400
REMARK  158  A    between atoms: _400  and  _401
REMARK  159  A    between atoms: _400  and  _403
REMARK  160  A    between atoms: _403  and  _404
REMARK  161  A    between atoms: _406  and  _408
REMARK  162  A    between atoms: _408  and  _409
REMARK  163  A    between atoms: _412  and  _414
REMARK  164  A    between atoms: _414  and  _415
REMARK  165  A    between atoms: _414  and  _417
REMARK  166  A    between atoms: _417  and  _418
REMARK  167  A    between atoms: _428  and  _430
REMARK  168  A    between atoms: _430  and  _431
REMARK  169  A    between atoms: _430  and  _433
REMARK  170  A    between atoms: _433  and  _434
REMARK  171  A    between atoms: _434  and  _435
REMARK  172  A    between atoms: _440  and  _442
REMARK  173  A    between atoms: _442  and  _443
REMARK  174  A    between atoms: _442  and  _445
REMARK  175  A    between atoms: _448  and  _450
REMARK  176  A    between atoms: _450  and  _451
REMARK  177  A    between atoms: _450  and  _453
REMARK  178  A    between atoms: _453  and  _454
REMARK  179  A    between atoms: _457  and  _459
REMARK  180  A    between atoms: _459  and  _460
REMARK  181  A    between atoms: _459  and  _462
REMARK  182  A    between atoms: _462  and  _463
REMARK  183  A    between atoms: _468  and  _469
REMARK  184  A    between atoms: _471  and  _473
REMARK  185  A    between atoms: _473  and  _474
REMARK  186  A    between atoms: _473  and  _476
REMARK  187  A    between atoms: _479  and  _481
REMARK  188  A    between atoms: _481  and  _482
REMARK  189  A    between atoms: _481  and  _484
REMARK  190  A    between atoms: _484  and  _485
REMARK  191  A    between atoms: _491  and  _493
REMARK  192  A    between atoms: _493  and  _494
REMARK  193  A    between atoms: _493  and  _496
REMARK  194  A    between atoms: _496  and  _497
REMARK  195  A    between atoms: _497  and  _498
REMARK  196  A    between atoms: _503  and  _505
REMARK  197  A    between atoms: _505  and  _506
REMARK  198  A    between atoms: _505  and  _508
REMARK  199  A    between atoms: _508  and  _509
REMARK  200  A    between atoms: _511  and  _513
REMARK  201  A    between atoms: _513  and  _514
REMARK  202  A    between atoms: _513  and  _516
REMARK  203  A    between atoms: _516  and  _517
REMARK  204  A    between atoms: _522  and  _524
REMARK  205  A    between atoms: _524  and  _525
REMARK  206  A    between atoms: _524  and  _527
REMARK  207  A    between atoms: _527  and  _528
REMARK  208  A    between atoms: _538  and  _540
REMARK  209  A    between atoms: _540  and  _541
REMARK  210  A    between atoms: _540  and  _543
REMARK  211  A    between atoms: _543  and  _544
REMARK  212  A    between atoms: _547  and  _549
REMARK  213  A    between atoms: _549  and  _550
REMARK  214  A    between atoms: _549  and  _552
REMARK  215  A    between atoms: _552  and  _553
REMARK  216  A    between atoms: _558  and  _559
REMARK  217  A    between atoms: _561  and  _563
REMARK  218  A    between atoms: _563  and  _564
REMARK  219  A    between atoms: _563  and  _566
REMARK  220  A    between atoms: _566  and  _567
REMARK  221  A    between atoms: _570  and  _572
REMARK  222  A    between atoms: _572  and  _573
REMARK  223  A    between atoms: _572  and  _575
REMARK  224  A    between atoms: _575  and  _576
REMARK  225  A    between atoms: _576  and  _577
REMARK  226  A    between atoms: _580  and  _582
REMARK  227  A    between atoms: _582  and  _583
REMARK  228  A    between atoms: _582  and  _585
REMARK  229  A    between atoms: _585  and  _586
REMARK  230  A    between atoms: _591  and  _593
REMARK  231  A    between atoms: _593  and  _594
REMARK  232  A    between atoms: _596  and  _598
REMARK  233  A    between atoms: _598  and  _599
REMARK  234  A    between atoms: _598  and  _601
REMARK  235  A    between atoms: _601  and  _602
REMARK  236  A    between atoms: _602  and  _603
REMARK  237  A    between atoms: _605  and  _607
REMARK  238  A    between atoms: _607  and  _608
REMARK  239  A    between atoms: _607  and  _610
REMARK  240  A    between atoms: _610  and  _611
REMARK  241  A    between atoms: _614  and  _616
REMARK  242  A    between atoms: _616  and  _617
REMARK  243  A    between atoms: _616  and  _619
REMARK  244  A    between atoms: _619  and  _620
REMARK  245  A    between atoms: _630  and  _632
REMARK  246  A    between atoms: _632  and  _633
REMARK  247  A    between atoms: _632  and  _635
REMARK  248  A    between atoms: _635  and  _636
REMARK  249  A    between atoms: _638  and  _640
REMARK  250  A    between atoms: _640  and  _641
REMARK  251  A    between atoms: _640  and  _643
REMARK  252  A    between atoms: _643  and  _644
REMARK  253  A    between atoms: _649  and  _651
REMARK  254  A    between atoms: _651  and  _652
REMARK  255  A    between atoms: _651  and  _654
REMARK  256  A    between atoms: _654  and  _655
REMARK  257  A    between atoms: _661  and  _663
REMARK  258  A    between atoms: _663  and  _664
REMARK  259  A    between atoms: _663  and  _666
REMARK  260  A    between atoms: _666  and  _667
REMARK  261  A    between atoms: _667  and  _668
REMARK  262  A    between atoms: _671  and  _673
REMARK  263  A    between atoms: _673  and  _674
REMARK  264  A    between atoms: _673  and  _676
REMARK  265  A    between atoms: _676  and  _677
REMARK  266  A    between atoms: _687  and  _689
REMARK  267  A    between atoms: _689  and  _690
REMARK  268  A    between atoms: _689  and  _692
REMARK  269  A    between atoms: _692  and  _693
REMARK  270  A    between atoms: _696  and  _698
REMARK  271  A    between atoms: _698  and  _699
REMARK  272  A    between atoms: _698  and  _701
REMARK  273  A    between atoms: _701  and  _702
REMARK  274  A    between atoms: _704  and  _706
REMARK  275  A    between atoms: _706  and  _707
REMARK  276  A    between atoms: _706  and  _709
REMARK  277  A    between atoms: _709  and  _710
REMARK  278  A    between atoms: _712  and  _714
REMARK  279  A    between atoms: _714  and  _715
REMARK  280  A    between atoms: _714  and  _717
REMARK  281  A    between atoms: _717  and  _718
REMARK                            x       y       z     vdW  Elec       q    Type
REMARK                         _______ _______ _______ _____ _____    ______ ____
ROOT
ATOM      1  CB  PHE A   1       1.589   7.512  32.254  0.00  0.00    +0.051 C 
ENDROOT
BRANCH   1   2
ATOM      2  CG  PHE A   1       1.293   7.104  33.672  0.00  0.00    -0.020 A 
ATOM      3  CD2 PHE A   1       1.936   7.751  34.740  0.00  0.00    -0.004 A 
ATOM      4  CE2 PHE A   1       1.684   7.369  36.071  0.00  0.00    -0.000 A 
ATOM      5  CZ  PHE A   1       0.755   6.321  36.345  0.00  0.00    -0.000 A 
ATOM      6  CE1 PHE A   1       0.093   5.670  35.266  0.00  0.00    -0.000 A 
ATOM      7  CD1 PHE A   1       0.382   6.065  33.944  0.00  0.00    -0.004 A 
ENDBRANCH   1   2
BRANCH   1   8
ATOM      8  CA  PHE A   1       0.783   8.730  31.761  0.00  0.00    +0.137 C 
BRANCH   8   9
ATOM      9  N   PHE A   1      -0.500   8.300  31.187  0.00  0.00    -0.239 NA
ATOM     10  H   PHE A   1      -0.531   7.412  30.646  0.00  0.00    +0.142 HD
ENDBRANCH   8   9
BRANCH   8  11
ATOM     11  C   PHE A   1       1.692   9.516  30.796  0.00  0.00    +0.224 C 
ATOM     12  O   PHE A   1       2.776   9.955  31.182  0.00  0.00    -0.287 OA
ENDBRANCH   8  11
ENDBRANCH   1   8
TORSDOF 4
REMARK  Name = ../refined-set-2016/3f5k/3f5k_pocket.pdb
REMARK  281 active torsions:
REMARK  status: ('A' for Active; 'I' for Inactive)
REMARK    1  A    between atoms: _1  and  _3
REMARK    2  A    between atoms: _3  and  _4
REMARK    3  A    between atoms: _3  and  _6
REMARK    4  A    between atoms: _9  and  _11
REMARK    5  A    between atoms: _11  and  _12
REMARK    6  A    between atoms: _11  and  _14
REMARK    7  A    between atoms: _14  and  _15
REMARK    8  A    between atoms: _18  and  _20
REMARK    9  A    between atoms: _20  and  _21
REMARK   10  A    between atoms: _20  and  _23
REMARK   11  A    between atoms: _23  and  _24
REMARK   12  A    between atoms: _26  and  _28
REMARK   13  A    between atoms: _28  and  _29
REMARK   14  A    between atoms: _32  and  _34
REMARK   15  A    between atoms: _34  and  _35
REMARK   16  A    between atoms: _34  and  _37
REMARK   17  A    between atoms: _37  and  _38
REMARK   18  A    between atoms: _38  and  _39
REMARK   19  A    between atoms: _44  and  _46
REMARK   20  A    between atoms: _46  and  _47
REMARK   21  A    between atoms: _46  and  _49
REMARK   22  A    between atoms: _49  and  _50
REMARK   23  A    between atoms: _50  and  _51
REMARK   24  A    between atoms: _51  and  _52
REMARK   25  A    between atoms: _61  and  _63
REMARK   26  A    between atoms: _63  and  _64
REMARK   27  A    between atoms: _63  and  _66
REMARK   28  A    between atoms: _66  and  _67
REMARK   29  A    between atoms: _72  and  _74
REMARK   30  A    between atoms: _74  and  _75
REMARK   31  A    between atoms: _74  and  _77
REMARK   32  A    between atoms: _77  and  _78
REMARK   33  A    between atoms: _83  and  _85
REMARK   34  A    between atoms: _85  and  _86
REMARK   35  A    between atoms: _85  and  _88
REMARK   36  A    between atoms: _88  and  _89
REMARK   37  A    between atoms: _94  and  _95
REMARK   38  A    between atoms: _97  and  _99
REMARK   39  A    between atoms: _99  and  _100
REMARK   40  A    between atoms: _99  and  _102
REMARK   41  A    between atoms: _102  and  _103
REMARK   42  A    between atoms: _108  and  _110
REMARK   43  A    between atoms: _110  and  _111
REMARK   44  A    between atoms: _110  and  _113
REMARK   45  A    between atoms: _113  and  _114
REMARK   46  A    between atoms: _114  and  _115
REMARK   47  A    between atoms: _120  and  _122
REMARK   48  A    between atoms: _122  and  _123
REMARK   49  A    between atoms: _122  and  _125
REMARK   50  A    between atoms: _125  and  _126
REMARK   51  A    between atoms: _126  and  _127
REMARK   52  A    between atoms: _127  and  _128
REMARK   53  A    between atoms: _137  and  _139
REMARK   54  A    between atoms: _139  and  _140
REMARK   55  A    between atoms: _139  and  _142
REMARK   56  A    between atoms: _142  and  _143
REMARK   57  A    between atoms: _146  and  _148
REMARK   58  A    between atoms: _148  and  _149
REMARK   59  A    between atoms: _148  and  _151
REMARK   60  A    between atoms: _151  and  _152
REMARK   61  A    between atoms: _155  and  _157
REMARK   62  A    between atoms: _157  and  _158
REMARK   63  A    between atoms: _157  and  _160
REMARK   64  A    between atoms: _160  and  _161
REMARK   65  A    between atoms: _164  and  _166
REMARK   66  A    between atoms: _166  and  _167
REMARK   67  A    between atoms: _166  and  _169
REMARK   68  A    between atoms: _169  and  _170
REMARK   69  A    between atoms: _173  and  _175
REMARK   70  A    between atoms: _175  and  _176
REMARK   71  A    between atoms: _175  and  _178
REMARK   72  A    between atoms: _178  and  _179
REMARK   73  A    between atoms: _179  and  _180
REMARK   74  A    between atoms: _185  and  _187
REMARK   75  A    between atoms: _187  and  _188
REMARK   76  A    between atoms: _187  and  _190
REMARK   77  A    between atoms: _190  and  _191
REMARK   78  A    between atoms: _194  and  _196
REMARK   79  A    between atoms: _196  and  _197
REMARK   80  A    between atoms: _196  and  _199
REMARK   81  A    between atoms: _199  and  _200
REMARK   82  A    between atoms: _205  and  _207
REMARK   83  A    between atoms: _207  and  _208
REMARK   84  A    between atoms: _207  and  _210
REMARK   85  A    between atoms: _213  and  _215
REMARK   86  A    between atoms: _215  and  _216
REMARK   87  A    between atoms: _215  and  _218
REMARK   88  A    between atoms: _218  and  _219
REMARK   89  A    between atoms: _222  and  _224
REMARK   90  A    between atoms: _224  and  _225
REMARK   91  A    between atoms: _224  and  _227
REMARK   92  A    between atoms: _227  and  _228
REMARK   93  A    between atoms: _231  and  _233
REMARK   94  A    between atoms: _233  and  _234
REMARK   95  A    between atoms: _233  and  _236
REMARK   96  A    between atoms: _236  and  _237
REMARK   97  A    between atoms: _243  and  _245
REMARK   98  A    between atoms: _245  and  _246
REMARK   99  A    between atoms: _245  and  _248
REMARK  100  A    between atoms: _248  and  _249
REMARK  101  A    between atoms: _254  and  _256
REMARK  102  A    between atoms: _256  and  _257
REMARK  103  A    between atoms: _256  and  _259
REMARK  104  A    between atoms: _259  and  _260
REMARK  105  A    between atoms: _270  and  _272
REMARK  106  A    between atoms: _272  and  _273
REMARK  107  A    between atoms: _272  and  _275
REMARK  108  A    between atoms: _275  and  _276
REMARK  109  A    between atoms: _281  and  _282
REMARK  110  A    between atoms: _284  and  _286
REMARK  111  A    between atoms: _286  and  _287
REMARK  112  A    between atoms: _286  and  _289
REMARK  113  A    between atoms: _289  and  _290
REMARK  114  A    between atoms: _295  and  _297
REMARK  115  A    between atoms: _297  and  _298
REMARK  116  A    between atoms: _297  and  _300
REMARK  117  A    between atoms: _300  and  _301
REMARK  118  A    between atoms: _306  and  _308
REMARK  119  A    between atoms: _308  and  _309
REMARK  120  A    between atoms: _308  and  _311
REMARK  121  A    between atoms: _311  and  _312
REMARK  122  A    between atoms: _312  and  _313
REMARK  123  A    between atoms: _318  and  _320
REMARK  124  A    between atoms: _320  and  _321
REMARK  125  A    between atoms: _320  and  _323
REMARK  126  A    between atoms: _323  and  _324
REMARK  127  A    between atoms: _329  and  _330
REMARK  128  A    between atoms: _332  and  _334
REMARK  129  A    between atoms: _334  and  _335
REMARK  130  A    between atoms: _334  and  _337
REMARK  131  A    between atoms: _337  and  _338
REMARK  132  A    between atoms: _341  and  _343
REMARK  133  A    between atoms: _343  and  _344
REMARK  134  A    between atoms: _347  and  _349
REMARK  135  A    between atoms: _349  and  _350
REMARK  136  A    between atoms: _349  and  _352
REMARK  137  A    between atoms: _352  and  _353
REMARK  138  A    between atoms: _355  and  _357
REMARK  139  A    between atoms: _357  and  _358
REMARK  140  A    between atoms: _357  and  _360
REMARK  141  A    between atoms: _360  and  _361
REMARK  142  A    between atoms: _361  and  _362
REMARK  143  A    between atoms: _364  and  _366
REMARK  144  A    between atoms: _366  and  _367
REMARK  145  A    between atoms: _366  and  _369
REMARK  146  A    between atoms: _369  and  _370
REMARK  147  A    between atoms: _370  and  _371
REMARK  148  A    between atoms: _376  and  _378
REMARK  149  A    between atoms: _378  and  _379
REMARK  150  A    between atoms: _378  and  _381
REMARK  151  A    between atoms: _381  and  _382
REMARK  152  A    between atoms: _384  and  _386
REMARK  153  A    between atoms: _386  and  _387
REMARK  154  A    between atoms: _386  and  _389
REMARK  155  A    between atoms: _389  and  _390
REMARK  156  A    between atoms: _395  and  _396
REMARK  157  A    between atoms: _398  and  _400
REMARK  158  A    between atoms: _400  and  _401
REMARK  159  A    between atoms: _400  and  _403
REMARK  160  A    between atoms: _403  and  _404
REMARK  161  A    between atoms: _406  and  _408
REMARK  162  A    between atoms: _408  and  _409
REMARK  163  A    between atoms: _412  and  _414
REMARK  164  A    between atoms: _414  and  _415
REMARK  165  A    between atoms: _414  and  _417
REMARK  166  A    between atoms: _417  and  _418
REMARK  167  A    between atoms: _428  and  _430
REMARK  168  A    between atoms: _430  and  _431
REMARK  169  A    between atoms: _430  and  _433
REMARK  170  A    between atoms: _433  and  _434
REMARK  171  A    between atoms: _434  and  _435
REMARK  172  A    between atoms: _440  and  _442
REMARK  173  A    between atoms: _442  and  _443
REMARK  174  A    between atoms: _442  and  _445
REMARK  175  A    between atoms: _448  and  _450
REMARK  176  A    between atoms: _450  and  _451
REMARK  177  A    between atoms: _450  and  _453
REMARK  178  A    between atoms: _453  and  _454
REMARK  179  A    between atoms: _457  and  _459
REMARK  180  A    between atoms: _459  and  _460
REMARK  181  A    between atoms: _459  and  _462
REMARK  182  A    between atoms: _462  and  _463
REMARK  183  A    between atoms: _468  and  _469
REMARK  184  A    between atoms: _471  and  _473
REMARK  185  A    between atoms: _473  and  _474
REMARK  186  A    between atoms: _473  and  _476
REMARK  187  A    between atoms: _479  and  _481
REMARK  188  A    between atoms: _481  and  _482
REMARK  189  A    between atoms: _481  and  _484
REMARK  190  A    between atoms: _484  and  _485
REMARK  191  A    between atoms: _491  and  _493
REMARK  192  A    between atoms: _493  and  _494
REMARK  193  A    between atoms: _493  and  _496
REMARK  194  A    between atoms: _496  and  _497
REMARK  195  A    between atoms: _497  and  _498
REMARK  196  A    between atoms: _503  and  _505
REMARK  197  A    between atoms: _505  and  _506
REMARK  198  A    between atoms: _505  and  _508
REMARK  199  A    between atoms: _508  and  _509
REMARK  200  A    between atoms: _511  and  _513
REMARK  201  A    between atoms: _513  and  _514
REMARK  202  A    between atoms: _513  and  _516
REMARK  203  A    between atoms: _516  and  _517
REMARK  204  A    between atoms: _522  and  _524
REMARK  205  A    between atoms: _524  and  _525
REMARK  206  A    between atoms: _524  and  _527
REMARK  207  A    between atoms: _527  and  _528
REMARK  208  A    between atoms: _538  and  _540
REMARK  209  A    between atoms: _540  and  _541
REMARK  210  A    between atoms: _540  and  _543
REMARK  211  A    between atoms: _543  and  _544
REMARK  212  A    between atoms: _547  and  _549
REMARK  213  A    between atoms: _549  and  _550
REMARK  214  A    between atoms: _549  and  _552
REMARK  215  A    between atoms: _552  and  _553
REMARK  216  A    between atoms: _558  and  _559
REMARK  217  A    between atoms: _561  and  _563
REMARK  218  A    between atoms: _563  and  _564
REMARK  219  A    between atoms: _563  and  _566
REMARK  220  A    between atoms: _566  and  _567
REMARK  221  A    between atoms: _570  and  _572
REMARK  222  A    between atoms: _572  and  _573
REMARK  223  A    between atoms: _572  and  _575
REMARK  224  A    between atoms: _575  and  _576
REMARK  225  A    between atoms: _576  and  _577
REMARK  226  A    between atoms: _580  and  _582
REMARK  227  A    between atoms: _582  and  _583
REMARK  228  A    between atoms: _582  and  _585
REMARK  229  A    between atoms: _585  and  _586
REMARK  230  A    between atoms: _591  and  _593
REMARK  231  A    between atoms: _593  and  _594
REMARK  232  A    between atoms: _596  and  _598
REMARK  233  A    between atoms: _598  and  _599
REMARK  234  A    between atoms: _598  and  _601
REMARK  235  A    between atoms: _601  and  _602
REMARK  236  A    between atoms: _602  and  _603
REMARK  237  A    between atoms: _605  and  _607
REMARK  238  A    between atoms: _607  and  _608
REMARK  239  A    between atoms: _607  and  _610
REMARK  240  A    between atoms: _610  and  _611
REMARK  241  A    between atoms: _614  and  _616
REMARK  242  A    between atoms: _616  and  _617
REMARK  243  A    between atoms: _616  and  _619
REMARK  244  A    between atoms: _619  and  _620
REMARK  245  A    between atoms: _630  and  _632
REMARK  246  A    between atoms: _632  and  _633
REMARK  247  A    between atoms: _632  and  _635
REMARK  248  A    between atoms: _635  and  _636
REMARK  249  A    between atoms: _638  and  _640
REMARK  250  A    between atoms: _640  and  _641
REMARK  251  A    between atoms: _640  and  _643
REMARK  252  A    between atoms: _643  and  _644
REMARK  253  A    between atoms: _649  and  _651
REMARK  254  A    between atoms: _651  and  _652
REMARK  255  A    between atoms: _651  and  _654
REMARK  256  A    between atoms: _654  and  _655
REMARK  257  A    between atoms: _661  and  _663
REMARK  258  A    between atoms: _663  and  _664
REMARK  259  A    between atoms: _663  and  _666
REMARK  260  A    between atoms: _666  and  _667
REMARK  261  A    between atoms: _667  and  _668
REMARK  262  A    between atoms: _671  and  _673
REMARK  263  A    between atoms: _673  and  _674
REMARK  264  A    between atoms: _673  and  _676
REMARK  265  A    between atoms: _676  and  _677
REMARK  266  A    between atoms: _687  and  _689
REMARK  267  A    between atoms: _689  and  _690
REMARK  268  A    between atoms: _689  and  _692
REMARK  269  A    between atoms: _692  and  _693
REMARK  270  A    between atoms: _696  and  _698
REMARK  271  A    between atoms: _698  and  _699
REMARK  272  A    between atoms: _698  and  _701
REMARK  273  A    between atoms: _701  and  _702
REMARK  274  A    between atoms: _704  and  _706
REMARK  275  A    between atoms: _706  and  _707
REMARK  276  A    between atoms: _706  and  _709
REMARK  277  A    between atoms: _709  and  _710
REMARK  278  A    between atoms: _712  and  _714
REMARK  279  A    between atoms: _714  and  _715
REMARK  280  A    between atoms: _714  and  _717
REMARK  281  A    between atoms: _717  and  _718
REMARK                            x       y       z     vdW  Elec       q    Type
REMARK                         _______ _______ _______ _____ _____    ______ ____
ROOT
ATOM      1  O   HOH     1      -0.729   5.660  30.077  0.00  0.00    +0.000 OA
ENDROOT
TORSDOF 0
REMARK  Name = ../refined-set-2016/3f5k/3f5k_pocket.pdb
REMARK  281 active torsions:
REMARK  status: ('A' for Active; 'I' for Inactive)
REMARK    1  A    between atoms: _1  and  _3
REMARK    2  A    between atoms: _3  and  _4
REMARK    3  A    between atoms: _3  and  _6
REMARK    4  A    between atoms: _9  and  _11
REMARK    5  A    between atoms: _11  and  _12
REMARK    6  A    between atoms: _11  and  _14
REMARK    7  A    between atoms: _14  and  _15
REMARK    8  A    between atoms: _18  and  _20
REMARK    9  A    between atoms: _20  and  _21
REMARK   10  A    between atoms: _20  and  _23
REMARK   11  A    between atoms: _23  and  _24
REMARK   12  A    between atoms: _26  and  _28
REMARK   13  A    between atoms: _28  and  _29
REMARK   14  A    between atoms: _32  and  _34
REMARK   15  A    between atoms: _34  and  _35
REMARK   16  A    between atoms: _34  and  _37
REMARK   17  A    between atoms: _37  and  _38
REMARK   18  A    between atoms: _38  and  _39
REMARK   19  A    between atoms: _44  and  _46
REMARK   20  A    between atoms: _46  and  _47
REMARK   21  A    between atoms: _46  and  _49
REMARK   22  A    between atoms: _49  and  _50
REMARK   23  A    between atoms: _50  and  _51
REMARK   24  A    between atoms: _51  and  _52
REMARK   25  A    between atoms: _61  and  _63
REMARK   26  A    between atoms: _63  and  _64
REMARK   27  A    between atoms: _63  and  _66
REMARK   28  A    between atoms: _66  and  _67
REMARK   29  A    between atoms: _72  and  _74
REMARK   30  A    between atoms: _74  and  _75
REMARK   31  A    between atoms: _74  and  _77
REMARK   32  A    between atoms: _77  and  _78
REMARK   33  A    between atoms: _83  and  _85
REMARK   34  A    between atoms: _85  and  _86
REMARK   35  A    between atoms: _85  and  _88
REMARK   36  A    between atoms: _88  and  _89
REMARK   37  A    between atoms: _94  and  _95
REMARK   38  A    between atoms: _97  and  _99
REMARK   39  A    between atoms: _99  and  _100
REMARK   40  A    between atoms: _99  and  _102
REMARK   41  A    between atoms: _102  and  _103
REMARK   42  A    between atoms: _108  and  _110
REMARK   43  A    between atoms: _110  and  _111
REMARK   44  A    between atoms: _110  and  _113
REMARK   45  A    between atoms: _113  and  _114
REMARK   46  A    between atoms: _114  and  _115
REMARK   47  A    between atoms: _120  and  _122
REMARK   48  A    between atoms: _122  and  _123
REMARK   49  A    between atoms: _122  and  _125
REMARK   50  A    between atoms: _125  and  _126
REMARK   51  A    between atoms: _126  and  _127
REMARK   52  A    between atoms: _127  and  _128
REMARK   53  A    between atoms: _137  and  _139
REMARK   54  A    between atoms: _139  and  _140
REMARK   55  A    between atoms: _139  and  _142
REMARK   56  A    between atoms: _142  and  _143
REMARK   57  A    between atoms: _146  and  _148
REMARK   58  A    between atoms: _148  and  _149
REMARK   59  A    between atoms: _148  and  _151
REMARK   60  A    between atoms: _151  and  _152
REMARK   61  A    between atoms: _155  and  _157
REMARK   62  A    between atoms: _157  and  _158
REMARK   63  A    between atoms: _157  and  _160
REMARK   64  A    between atoms: _160  and  _161
REMARK   65  A    between atoms: _164  and  _166
REMARK   66  A    between atoms: _166  and  _167
REMARK   67  A    between atoms: _166  and  _169
REMARK   68  A    between atoms: _169  and  _170
REMARK   69  A    between atoms: _173  and  _175
REMARK   70  A    between atoms: _175  and  _176
REMARK   71  A    between atoms: _175  and  _178
REMARK   72  A    between atoms: _178  and  _179
REMARK   73  A    between atoms: _179  and  _180
REMARK   74  A    between atoms: _185  and  _187
REMARK   75  A    between atoms: _187  and  _188
REMARK   76  A    between atoms: _187  and  _190
REMARK   77  A    between atoms: _190  and  _191
REMARK   78  A    between atoms: _194  and  _196
REMARK   79  A    between atoms: _196  and  _197
REMARK   80  A    between atoms: _196  and  _199
REMARK   81  A    between atoms: _199  and  _200
REMARK   82  A    between atoms: _205  and  _207
REMARK   83  A    between atoms: _207  and  _208
REMARK   84  A    between atoms: _207  and  _210
REMARK   85  A    between atoms: _213  and  _215
REMARK   86  A    between atoms: _215  and  _216
REMARK   87  A    between atoms: _215  and  _218
REMARK   88  A    between atoms: _218  and  _219
REMARK   89  A    between atoms: _222  and  _224
REMARK   90  A    between atoms: _224  and  _225
REMARK   91  A    between atoms: _224  and  _227
REMARK   92  A    between atoms: _227  and  _228
REMARK   93  A    between atoms: _231  and  _233
REMARK   94  A    between atoms: _233  and  _234
REMARK   95  A    between atoms: _233  and  _236
REMARK   96  A    between atoms: _236  and  _237
REMARK   97  A    between atoms: _243  and  _245
REMARK   98  A    between atoms: _245  and  _246
REMARK   99  A    between atoms: _245  and  _248
REMARK  100  A    between atoms: _248  and  _249
REMARK  101  A    between atoms: _254  and  _256
REMARK  102  A    between atoms: _256  and  _257
REMARK  103  A    between atoms: _256  and  _259
REMARK  104  A    between atoms: _259  and  _260
REMARK  105  A    between atoms: _270  and  _272
REMARK  106  A    between atoms: _272  and  _273
REMARK  107  A    between atoms: _272  and  _275
REMARK  108  A    between atoms: _275  and  _276
REMARK  109  A    between atoms: _281  and  _282
REMARK  110  A    between atoms: _284  and  _286
REMARK  111  A    between atoms: _286  and  _287
REMARK  112  A    between atoms: _286  and  _289
REMARK  113  A    between atoms: _289  and  _290
REMARK  114  A    between atoms: _295  and  _297
REMARK  115  A    between atoms: _297  and  _298
REMARK  116  A    between atoms: _297  and  _300
REMARK  117  A    between atoms: _300  and  _301
REMARK  118  A    between atoms: _306  and  _308
REMARK  119  A    between atoms: _308  and  _309
REMARK  120  A    between atoms: _308  and  _311
REMARK  121  A    between atoms: _311  and  _312
REMARK  122  A    between atoms: _312  and  _313
REMARK  123  A    between atoms: _318  and  _320
REMARK  124  A    between atoms: _320  and  _321
REMARK  125  A    between atoms: _320  and  _323
REMARK  126  A    between atoms: _323  and  _324
REMARK  127  A    between atoms: _329  and  _330
REMARK  128  A    between atoms: _332  and  _334
REMARK  129  A    between atoms: _334  and  _335
REMARK  130  A    between atoms: _334  and  _337
REMARK  131  A    between atoms: _337  and  _338
REMARK  132  A    between atoms: _341  and  _343
REMARK  133  A    between atoms: _343  and  _344
REMARK  134  A    between atoms: _347  and  _349
REMARK  135  A    between atoms: _349  and  _350
REMARK  136  A    between atoms: _349  and  _352
REMARK  137  A    between atoms: _352  and  _353
REMARK  138  A    between atoms: _355  and  _357
REMARK  139  A    between atoms: _357  and  _358
REMARK  140  A    between atoms: _357  and  _360
REMARK  141  A    between atoms: _360  and  _361
REMARK  142  A    between atoms: _361  and  _362
REMARK  143  A    between atoms: _364  and  _366
REMARK  144  A    between atoms: _366  and  _367
REMARK  145  A    between atoms: _366  and  _369
REMARK  146  A    between atoms: _369  and  _370
REMARK  147  A    between atoms: _370  and  _371
REMARK  148  A    between atoms: _376  and  _378
REMARK  149  A    between atoms: _378  and  _379
REMARK  150  A    between atoms: _378  and  _381
REMARK  151  A    between atoms: _381  and  _382
REMARK  152  A    between atoms: _384  and  _386
REMARK  153  A    between atoms: _386  and  _387
REMARK  154  A    between atoms: _386  and  _389
REMARK  155  A    between atoms: _389  and  _390
REMARK  156  A    between atoms: _395  and  _396
REMARK  157  A    between atoms: _398  and  _400
REMARK  158  A    between atoms: _400  and  _401
REMARK  159  A    between atoms: _400  and  _403
REMARK  160  A    between atoms: _403  and  _404
REMARK  161  A    between atoms: _406  and  _408
REMARK  162  A    between atoms: _408  and  _409
REMARK  163  A    between atoms: _412  and  _414
REMARK  164  A    between atoms: _414  and  _415
REMARK  165  A    between atoms: _414  and  _417
REMARK  166  A    between atoms: _417  and  _418
REMARK  167  A    between atoms: _428  and  _430
REMARK  168  A    between atoms: _430  and  _431
REMARK  169  A    between atoms: _430  and  _433
REMARK  170  A    between atoms: _433  and  _434
REMARK  171  A    between atoms: _434  and  _435
REMARK  172  A    between atoms: _440  and  _442
REMARK  173  A    between atoms: _442  and  _443
REMARK  174  A    between atoms: _442  and  _445
REMARK  175  A    between atoms: _448  and  _450
REMARK  176  A    between atoms: _450  and  _451
REMARK  177  A    between atoms: _450  and  _453
REMARK  178  A    between atoms: _453  and  _454
REMARK  179  A    between atoms: _457  and  _459
REMARK  180  A    between atoms: _459  and  _460
REMARK  181  A    between atoms: _459  and  _462
REMARK  182  A    between atoms: _462  and  _463
REMARK  183  A    between atoms: _468  and  _469
REMARK  184  A    between atoms: _471  and  _473
REMARK  185  A    between atoms: _473  and  _474
REMARK  186  A    between atoms: _473  and  _476
REMARK  187  A    between atoms: _479  and  _481
REMARK  188  A    between atoms: _481  and  _482
REMARK  189  A    between atoms: _481  and  _484
REMARK  190  A    between atoms: _484  and  _485
REMARK  191  A    between atoms: _491  and  _493
REMARK  192  A    between atoms: _493  and  _494
REMARK  193  A    between atoms: _493  and  _496
REMARK  194  A    between atoms: _496  and  _497
REMARK  195  A    between atoms: _497  and  _498
REMARK  196  A    between atoms: _503  and  _505
REMARK  197  A    between atoms: _505  and  _506
REMARK  198  A    between atoms: _505  and  _508
REMARK  199  A    between atoms: _508  and  _509
REMARK  200  A    between atoms: _511  and  _513
REMARK  201  A    between atoms: _513  and  _514
REMARK  202  A    between atoms: _513  and  _516
REMARK  203  A    between atoms: _516  and  _517
REMARK  204  A    between atoms: _522  and  _524
REMARK  205  A    between atoms: _524  and  _525
REMARK  206  A    between atoms: _524  and  _527
REMARK  207  A    between atoms: _527  and  _528
REMARK  208  A    between atoms: _538  and  _540
REMARK  209  A    between atoms: _540  and  _541
REMARK  210  A    between atoms: _540  and  _543
REMARK  211  A    between atoms: _543  and  _544
REMARK  212  A    between atoms: _547  and  _549
REMARK  213  A    between atoms: _549  and  _550
REMARK  214  A    between atoms: _549  and  _552
REMARK  215  A    between atoms: _552  and  _553
REMARK  216  A    between atoms: _558  and  _559
REMARK  217  A    between atoms: _561  and  _563
REMARK  218  A    between atoms: _563  and  _564
REMARK  219  A    between atoms: _563  and  _566
REMARK  220  A    between atoms: _566  and  _567
REMARK  221  A    between atoms: _570  and  _572
REMARK  222  A    between atoms: _572  and  _573
REMARK  223  A    between atoms: _572  and  _575
REMARK  224  A    between atoms: _575  and  _576
REMARK  225  A    between atoms: _576  and  _577
REMARK  226  A    between atoms: _580  and  _582
REMARK  227  A    between atoms: _582  and  _583
REMARK  228  A    between atoms: _582  and  _585
REMARK  229  A    between atoms: _585  and  _586
REMARK  230  A    between atoms: _591  and  _593
REMARK  231  A    between atoms: _593  and  _594
REMARK  232  A    between atoms: _596  and  _598
REMARK  233  A    between atoms: _598  and  _599
REMARK  234  A    between atoms: _598  and  _601
REMARK  235  A    between atoms: _601  and  _602
REMARK  236  A    between atoms: _602  and  _603
REMARK  237  A    between atoms: _605  and  _607
REMARK  238  A    between atoms: _607  and  _608
REMARK  239  A    between atoms: _607  and  _610
REMARK  240  A    between atoms: _610  and  _611
REMARK  241  A    between atoms: _614  and  _616
REMARK  242  A    between atoms: _616  and  _617
REMARK  243  A    between atoms: _616  and  _619
REMARK  244  A    between atoms: _619  and  _620
REMARK  245  A    between atoms: _630  and  _632
REMARK  246  A    between atoms: _632  and  _633
REMARK  247  A    between atoms: _632  and  _635
REMARK  248  A    between atoms: _635  and  _636
REMARK  249  A    between atoms: _638  and  _640
REMARK  250  A    between atoms: _640  and  _641
REMARK  251  A    between atoms: _640  and  _643
REMARK  252  A    between atoms: _643  and  _644
REMARK  253  A    between atoms: _649  and  _651
REMARK  254  A    between atoms: _651  and  _652
REMARK  255  A    between atoms: _651  and  _654
REMARK  256  A    between atoms: _654  and  _655
REMARK  257  A    between atoms: _661  and  _663
REMARK  258  A    between atoms: _663  and  _664
REMARK  259  A    between atoms: _663  and  _666
REMARK  260  A    between atoms: _666  and  _667
REMARK  261  A    between atoms: _667  and  _668
REMARK  262  A    between atoms: _671  and  _673
REMARK  263  A    between atoms: _673  and  _674
REMARK  264  A    between atoms: _673  and  _676
REMARK  265  A    between atoms: _676  and  _677
REMARK  266  A    between atoms: _687  and  _689
REMARK  267  A    between atoms: _689  and  _690
REMARK  268  A    between atoms: _689  and  _692
REMARK  269  A    between atoms: _692  and  _693
REMARK  270  A    between atoms: _696  and  _698
REMARK  271  A    between atoms: _698  and  _699
REMARK  272  A    between atoms: _698  and  _701
REMARK  273  A    between atoms: _701  and  _702
REMARK  274  A    between atoms: _704  and  _706
REMARK  275  A    between atoms: _706  and  _707
REMARK  276  A    between atoms: _706  and  _709
REMARK  277  A    between atoms: _709  and  _710
REMARK  278  A    between atoms: _712  and  _714
REMARK  279  A    between atoms: _714  and  _715
REMARK  280  A    between atoms: _714  and  _717
REMARK  281  A    between atoms: _717  and  _718
REMARK                            x       y       z     vdW  Elec       q    Type
REMARK                         _______ _______ _______ _____ _____    ______ ____
ROOT
ATOM      1  O   HOH     1       0.914  -6.801  60.068  0.00  0.00    +0.000 OA
ENDROOT
TORSDOF 0
REMARK  Name = ../refined-set-2016/3f5k/3f5k_pocket.pdb
REMARK  281 active torsions:
REMARK  status: ('A' for Active; 'I' for Inactive)
REMARK    1  A    between atoms: _1  and  _3
REMARK    2  A    between atoms: _3  and  _4
REMARK    3  A    between atoms: _3  and  _6
REMARK    4  A    between atoms: _9  and  _11
REMARK    5  A    between atoms: _11  and  _12
REMARK    6  A    between atoms: _11  and  _14
REMARK    7  A    between atoms: _14  and  _15
REMARK    8  A    between atoms: _18  and  _20
REMARK    9  A    between atoms: _20  and  _21
REMARK   10  A    between atoms: _20  and  _23
REMARK   11  A    between atoms: _23  and  _24
REMARK   12  A    between atoms: _26  and  _28
REMARK   13  A    between atoms: _28  and  _29
REMARK   14  A    between atoms: _32  and  _34
REMARK   15  A    between atoms: _34  and  _35
REMARK   16  A    between atoms: _34  and  _37
REMARK   17  A    between atoms: _37  and  _38
REMARK   18  A    between atoms: _38  and  _39
REMARK   19  A    between atoms: _44  and  _46
REMARK   20  A    between atoms: _46  and  _47
REMARK   21  A    between atoms: _46  and  _49
REMARK   22  A    between atoms: _49  and  _50
REMARK   23  A    between atoms: _50  and  _51
REMARK   24  A    between atoms: _51  and  _52
REMARK   25  A    between atoms: _61  and  _63
REMARK   26  A    between atoms: _63  and  _64
REMARK   27  A    between atoms: _63  and  _66
REMARK   28  A    between atoms: _66  and  _67
REMARK   29  A    between atoms: _72  and  _74
REMARK   30  A    between atoms: _74  and  _75
REMARK   31  A    between atoms: _74  and  _77
REMARK   32  A    between atoms: _77  and  _78
REMARK   33  A    between atoms: _83  and  _85
REMARK   34  A    between atoms: _85  and  _86
REMARK   35  A    between atoms: _85  and  _88
REMARK   36  A    between atoms: _88  and  _89
REMARK   37  A    between atoms: _94  and  _95
REMARK   38  A    between atoms: _97  and  _99
REMARK   39  A    between atoms: _99  and  _100
REMARK   40  A    between atoms: _99  and  _102
REMARK   41  A    between atoms: _102  and  _103
REMARK   42  A    between atoms: _108  and  _110
REMARK   43  A    between atoms: _110  and  _111
REMARK   44  A    between atoms: _110  and  _113
REMARK   45  A    between atoms: _113  and  _114
REMARK   46  A    between atoms: _114  and  _115
REMARK   47  A    between atoms: _120  and  _122
REMARK   48  A    between atoms: _122  and  _123
REMARK   49  A    between atoms: _122  and  _125
REMARK   50  A    between atoms: _125  and  _126
REMARK   51  A    between atoms: _126  and  _127
REMARK   52  A    between atoms: _127  and  _128
REMARK   53  A    between atoms: _137  and  _139
REMARK   54  A    between atoms: _139  and  _140
REMARK   55  A    between atoms: _139  and  _142
REMARK   56  A    between atoms: _142  and  _143
REMARK   57  A    between atoms: _146  and  _148
REMARK   58  A    between atoms: _148  and  _149
REMARK   59  A    between atoms: _148  and  _151
REMARK   60  A    between atoms: _151  and  _152
REMARK   61  A    between atoms: _155  and  _157
REMARK   62  A    between atoms: _157  and  _158
REMARK   63  A    between atoms: _157  and  _160
REMARK   64  A    between atoms: _160  and  _161
REMARK   65  A    between atoms: _164  and  _166
REMARK   66  A    between atoms: _166  and  _167
REMARK   67  A    between atoms: _166  and  _169
REMARK   68  A    between atoms: _169  and  _170
REMARK   69  A    between atoms: _173  and  _175
REMARK   70  A    between atoms: _175  and  _176
REMARK   71  A    between atoms: _175  and  _178
REMARK   72  A    between atoms: _178  and  _179
REMARK   73  A    between atoms: _179  and  _180
REMARK   74  A    between atoms: _185  and  _187
REMARK   75  A    between atoms: _187  and  _188
REMARK   76  A    between atoms: _187  and  _190
REMARK   77  A    between atoms: _190  and  _191
REMARK   78  A    between atoms: _194  and  _196
REMARK   79  A    between atoms: _196  and  _197
REMARK   80  A    between atoms: _196  and  _199
REMARK   81  A    between atoms: _199  and  _200
REMARK   82  A    between atoms: _205  and  _207
REMARK   83  A    between atoms: _207  and  _208
REMARK   84  A    between atoms: _207  and  _210
REMARK   85  A    between atoms: _213  and  _215
REMARK   86  A    between atoms: _215  and  _216
REMARK   87  A    between atoms: _215  and  _218
REMARK   88  A    between atoms: _218  and  _219
REMARK   89  A    between atoms: _222  and  _224
REMARK   90  A    between atoms: _224  and  _225
REMARK   91  A    between atoms: _224  and  _227
REMARK   92  A    between atoms: _227  and  _228
REMARK   93  A    between atoms: _231  and  _233
REMARK   94  A    between atoms: _233  and  _234
REMARK   95  A    between atoms: _233  and  _236
REMARK   96  A    between atoms: _236  and  _237
REMARK   97  A    between atoms: _243  and  _245
REMARK   98  A    between atoms: _245  and  _246
REMARK   99  A    between atoms: _245  and  _248
REMARK  100  A    between atoms: _248  and  _249
REMARK  101  A    between atoms: _254  and  _256
REMARK  102  A    between atoms: _256  and  _257
REMARK  103  A    between atoms: _256  and  _259
REMARK  104  A    between atoms: _259  and  _260
REMARK  105  A    between atoms: _270  and  _272
REMARK  106  A    between atoms: _272  and  _273
REMARK  107  A    between atoms: _272  and  _275
REMARK  108  A    between atoms: _275  and  _276
REMARK  109  A    between atoms: _281  and  _282
REMARK  110  A    between atoms: _284  and  _286
REMARK  111  A    between atoms: _286  and  _287
REMARK  112  A    between atoms: _286  and  _289
REMARK  113  A    between atoms: _289  and  _290
REMARK  114  A    between atoms: _295  and  _297
REMARK  115  A    between atoms: _297  and  _298
REMARK  116  A    between atoms: _297  and  _300
REMARK  117  A    between atoms: _300  and  _301
REMARK  118  A    between atoms: _306  and  _308
REMARK  119  A    between atoms: _308  and  _309
REMARK  120  A    between atoms: _308  and  _311
REMARK  121  A    between atoms: _311  and  _312
REMARK  122  A    between atoms: _312  and  _313
REMARK  123  A    between atoms: _318  and  _320
REMARK  124  A    between atoms: _320  and  _321
REMARK  125  A    between atoms: _320  and  _323
REMARK  126  A    between atoms: _323  and  _324
REMARK  127  A    between atoms: _329  and  _330
REMARK  128  A    between atoms: _332  and  _334
REMARK  129  A    between atoms: _334  and  _335
REMARK  130  A    between atoms: _334  and  _337
REMARK  131  A    between atoms: _337  and  _338
REMARK  132  A    between atoms: _341  and  _343
REMARK  133  A    between atoms: _343  and  _344
REMARK  134  A    between atoms: _347  and  _349
REMARK  135  A    between atoms: _349  and  _350
REMARK  136  A    between atoms: _349  and  _352
REMARK  137  A    between atoms: _352  and  _353
REMARK  138  A    between atoms: _355  and  _357
REMARK  139  A    between atoms: _357  and  _358
REMARK  140  A    between atoms: _357  and  _360
REMARK  141  A    between atoms: _360  and  _361
REMARK  142  A    between atoms: _361  and  _362
REMARK  143  A    between atoms: _364  and  _366
REMARK  144  A    between atoms: _366  and  _367
REMARK  145  A    between atoms: _366  and  _369
REMARK  146  A    between atoms: _369  and  _370
REMARK  147  A    between atoms: _370  and  _371
REMARK  148  A    between atoms: _376  and  _378
REMARK  149  A    between atoms: _378  and  _379
REMARK  150  A    between atoms: _378  and  _381
REMARK  151  A    between atoms: _381  and  _382
REMARK  152  A    between atoms: _384  and  _386
REMARK  153  A    between atoms: _386  and  _387
REMARK  154  A    between atoms: _386  and  _389
REMARK  155  A    between atoms: _389  and  _390
REMARK  156  A    between atoms: _395  and  _396
REMARK  157  A    between atoms: _398  and  _400
REMARK  158  A    between atoms: _400  and  _401
REMARK  159  A    between atoms: _400  and  _403
REMARK  160  A    between atoms: _403  and  _404
REMARK  161  A    between atoms: _406  and  _408
REMARK  162  A    between atoms: _408  and  _409
REMARK  163  A    between atoms: _412  and  _414
REMARK  164  A    between atoms: _414  and  _415
REMARK  165  A    between atoms: _414  and  _417
REMARK  166  A    between atoms: _417  and  _418
REMARK  167  A    between atoms: _428  and  _430
REMARK  168  A    between atoms: _430  and  _431
REMARK  169  A    between atoms: _430  and  _433
REMARK  170  A    between atoms: _433  and  _434
REMARK  171  A    between atoms: _434  and  _435
REMARK  172  A    between atoms: _440  and  _442
REMARK  173  A    between atoms: _442  and  _443
REMARK  174  A    between atoms: _442  and  _445
REMARK  175  A    between atoms: _448  and  _450
REMARK  176  A    between atoms: _450  and  _451
REMARK  177  A    between atoms: _450  and  _453
REMARK  178  A    between atoms: _453  and  _454
REMARK  179  A    between atoms: _457  and  _459
REMARK  180  A    between atoms: _459  and  _460
REMARK  181  A    between atoms: _459  and  _462
REMARK  182  A    between atoms: _462  and  _463
REMARK  183  A    between atoms: _468  and  _469
REMARK  184  A    between atoms: _471  and  _473
REMARK  185  A    between atoms: _473  and  _474
REMARK  186  A    between atoms: _473  and  _476
REMARK  187  A    between atoms: _479  and  _481
REMARK  188  A    between atoms: _481  and  _482
REMARK  189  A    between atoms: _481  and  _484
REMARK  190  A    between atoms: _484  and  _485
REMARK  191  A    between atoms: _491  and  _493
REMARK  192  A    between atoms: _493  and  _494
REMARK  193  A    between atoms: _493  and  _496
REMARK  194  A    between atoms: _496  and  _497
REMARK  195  A    between atoms: _497  and  _498
REMARK  196  A    between atoms: _503  and  _505
REMARK  197  A    between atoms: _505  and  _506
REMARK  198  A    between atoms: _505  and  _508
REMARK  199  A    between atoms: _508  and  _509
REMARK  200  A    between atoms: _511  and  _513
REMARK  201  A    between atoms: _513  and  _514
REMARK  202  A    between atoms: _513  and  _516
REMARK  203  A    between atoms: _516  and  _517
REMARK  204  A    between atoms: _522  and  _524
REMARK  205  A    between atoms: _524  and  _525
REMARK  206  A    between atoms: _524  and  _527
REMARK  207  A    between atoms: _527  and  _528
REMARK  208  A    between atoms: _538  and  _540
REMARK  209  A    between atoms: _540  and  _541
REMARK  210  A    between atoms: _540  and  _543
REMARK  211  A    between atoms: _543  and  _544
REMARK  212  A    between atoms: _547  and  _549
REMARK  213  A    between atoms: _549  and  _550
REMARK  214  A    between atoms: _549  and  _552
REMARK  215  A    between atoms: _552  and  _553
REMARK  216  A    between atoms: _558  and  _559
REMARK  217  A    between atoms: _561  and  _563
REMARK  218  A    between atoms: _563  and  _564
REMARK  219  A    between atoms: _563  and  _566
REMARK  220  A    between atoms: _566  and  _567
REMARK  221  A    between atoms: _570  and  _572
REMARK  222  A    between atoms: _572  and  _573
REMARK  223  A    between atoms: _572  and  _575
REMARK  224  A    between atoms: _575  and  _576
REMARK  225  A    between atoms: _576  and  _577
REMARK  226  A    between atoms: _580  and  _582
REMARK  227  A    between atoms: _582  and  _583
REMARK  228  A    between atoms: _582  and  _585
REMARK  229  A    between atoms: _585  and  _586
REMARK  230  A    between atoms: _591  and  _593
REMARK  231  A    between atoms: _593  and  _594
REMARK  232  A    between atoms: _596  and  _598
REMARK  233  A    between atoms: _598  and  _599
REMARK  234  A    between atoms: _598  and  _601
REMARK  235  A    between atoms: _601  and  _602
REMARK  236  A    between atoms: _602  and  _603
REMARK  237  A    between atoms: _605  and  _607
REMARK  238  A    between atoms: _607  and  _608
REMARK  239  A    between atoms: _607  and  _610
REMARK  240  A    between atoms: _610  and  _611
REMARK  241  A    between atoms: _614  and  _616
REMARK  242  A    between atoms: _616  and  _617
REMARK  243  A    between atoms: _616  and  _619
REMARK  244  A    between atoms: _619  and  _620
REMARK  245  A    between atoms: _630  and  _632
REMARK  246  A    between atoms: _632  and  _633
REMARK  247  A    between atoms: _632  and  _635
REMARK  248  A    between atoms: _635  and  _636
REMARK  249  A    between atoms: _638  and  _640
REMARK  250  A    between atoms: _640  and  _641
REMARK  251  A    between atoms: _640  and  _643
REMARK  252  A    between atoms: _643  and  _644
REMARK  253  A    between atoms: _649  and  _651
REMARK  254  A    between atoms: _651  and  _652
REMARK  255  A    between atoms: _651  and  _654
REMARK  256  A    between atoms: _654  and  _655
REMARK  257  A    between atoms: _661  and  _663
REMARK  258  A    between atoms: _663  and  _664
REMARK  259  A    between atoms: _663  and  _666
REMARK  260  A    between atoms: _666  and  _667
REMARK  261  A    between atoms: _667  and  _668
REMARK  262  A    between atoms: _671  and  _673
REMARK  263  A    between atoms: _673  and  _674
REMARK  264  A    between atoms: _673  and  _676
REMARK  265  A    between atoms: _676  and  _677
REMARK  266  A    between atoms: _687  and  _689
REMARK  267  A    between atoms: _689  and  _690
REMARK  268  A    between atoms: _689  and  _692
REMARK  269  A    between atoms: _692  and  _693
REMARK  270  A    between atoms: _696  and  _698
REMARK  271  A    between atoms: _698  and  _699
REMARK  272  A    between atoms: _698  and  _701
REMARK  273  A    between atoms: _701  and  _702
REMARK  274  A    between atoms: _704  and  _706
REMARK  275  A    between atoms: _706  and  _707
REMARK  276  A    between atoms: _706  and  _709
REMARK  277  A    between atoms: _709  and  _710
REMARK  278  A    between atoms: _712  and  _714
REMARK  279  A    between atoms: _714  and  _715
REMARK  280  A    between atoms: _714  and  _717
REMARK  281  A    between atoms: _717  and  _718
REMARK                            x       y       z     vdW  Elec       q    Type
REMARK                         _______ _______ _______ _____ _____    ______ ____
ROOT
ATOM      1  O   HOH     1      11.409  -3.660  42.584  0.00  0.00    +0.000 OA
ENDROOT
TORSDOF 0
REMARK  Name = ../refined-set-2016/3f5k/3f5k_pocket.pdb
REMARK  281 active torsions:
REMARK  status: ('A' for Active; 'I' for Inactive)
REMARK    1  A    between atoms: _1  and  _3
REMARK    2  A    between atoms: _3  and  _4
REMARK    3  A    between atoms: _3  and  _6
REMARK    4  A    between atoms: _9  and  _11
REMARK    5  A    between atoms: _11  and  _12
REMARK    6  A    between atoms: _11  and  _14
REMARK    7  A    between atoms: _14  and  _15
REMARK    8  A    between atoms: _18  and  _20
REMARK    9  A    between atoms: _20  and  _21
REMARK   10  A    between atoms: _20  and  _23
REMARK   11  A    between atoms: _23  and  _24
REMARK   12  A    between atoms: _26  and  _28
REMARK   13  A    between atoms: _28  and  _29
REMARK   14  A    between atoms: _32  and  _34
REMARK   15  A    between atoms: _34  and  _35
REMARK   16  A    between atoms: _34  and  _37
REMARK   17  A    between atoms: _37  and  _38
REMARK   18  A    between atoms: _38  and  _39
REMARK   19  A    between atoms: _44  and  _46
REMARK   20  A    between atoms: _46  and  _47
REMARK   21  A    between atoms: _46  and  _49
REMARK   22  A    between atoms: _49  and  _50
REMARK   23  A    between atoms: _50  and  _51
REMARK   24  A    between atoms: _51  and  _52
REMARK   25  A    between atoms: _61  and  _63
REMARK   26  A    between atoms: _63  and  _64
REMARK   27  A    between atoms: _63  and  _66
REMARK   28  A    between atoms: _66  and  _67
REMARK   29  A    between atoms: _72  and  _74
REMARK   30  A    between atoms: _74  and  _75
REMARK   31  A    between atoms: _74  and  _77
REMARK   32  A    between atoms: _77  and  _78
REMARK   33  A    between atoms: _83  and  _85
REMARK   34  A    between atoms: _85  and  _86
REMARK   35  A    between atoms: _85  and  _88
REMARK   36  A    between atoms: _88  and  _89
REMARK   37  A    between atoms: _94  and  _95
REMARK   38  A    between atoms: _97  and  _99
REMARK   39  A    between atoms: _99  and  _100
REMARK   40  A    between atoms: _99  and  _102
REMARK   41  A    between atoms: _102  and  _103
REMARK   42  A    between atoms: _108  and  _110
REMARK   43  A    between atoms: _110  and  _111
REMARK   44  A    between atoms: _110  and  _113
REMARK   45  A    between atoms: _113  and  _114
REMARK   46  A    between atoms: _114  and  _115
REMARK   47  A    between atoms: _120  and  _122
REMARK   48  A    between atoms: _122  and  _123
REMARK   49  A    between atoms: _122  and  _125
REMARK   50  A    between atoms: _125  and  _126
REMARK   51  A    between atoms: _126  and  _127
REMARK   52  A    between atoms: _127  and  _128
REMARK   53  A    between atoms: _137  and  _139
REMARK   54  A    between atoms: _139  and  _140
REMARK   55  A    between atoms: _139  and  _142
REMARK   56  A    between atoms: _142  and  _143
REMARK   57  A    between atoms: _146  and  _148
REMARK   58  A    between atoms: _148  and  _149
REMARK   59  A    between atoms: _148  and  _151
REMARK   60  A    between atoms: _151  and  _152
REMARK   61  A    between atoms: _155  and  _157
REMARK   62  A    between atoms: _157  and  _158
REMARK   63  A    between atoms: _157  and  _160
REMARK   64  A    between atoms: _160  and  _161
REMARK   65  A    between atoms: _164  and  _166
REMARK   66  A    between atoms: _166  and  _167
REMARK   67  A    between atoms: _166  and  _169
REMARK   68  A    between atoms: _169  and  _170
REMARK   69  A    between atoms: _173  and  _175
REMARK   70  A    between atoms: _175  and  _176
REMARK   71  A    between atoms: _175  and  _178
REMARK   72  A    between atoms: _178  and  _179
REMARK   73  A    between atoms: _179  and  _180
REMARK   74  A    between atoms: _185  and  _187
REMARK   75  A    between atoms: _187  and  _188
REMARK   76  A    between atoms: _187  and  _190
REMARK   77  A    between atoms: _190  and  _191
REMARK   78  A    between atoms: _194  and  _196
REMARK   79  A    between atoms: _196  and  _197
REMARK   80  A    between atoms: _196  and  _199
REMARK   81  A    between atoms: _199  and  _200
REMARK   82  A    between atoms: _205  and  _207
REMARK   83  A    between atoms: _207  and  _208
REMARK   84  A    between atoms: _207  and  _210
REMARK   85  A    between atoms: _213  and  _215
REMARK   86  A    between atoms: _215  and  _216
REMARK   87  A    between atoms: _215  and  _218
REMARK   88  A    between atoms: _218  and  _219
REMARK   89  A    between atoms: _222  and  _224
REMARK   90  A    between atoms: _224  and  _225
REMARK   91  A    between atoms: _224  and  _227
REMARK   92  A    between atoms: _227  and  _228
REMARK   93  A    between atoms: _231  and  _233
REMARK   94  A    between atoms: _233  and  _234
REMARK   95  A    between atoms: _233  and  _236
REMARK   96  A    between atoms: _236  and  _237
REMARK   97  A    between atoms: _243  and  _245
REMARK   98  A    between atoms: _245  and  _246
REMARK   99  A    between atoms: _245  and  _248
REMARK  100  A    between atoms: _248  and  _249
REMARK  101  A    between atoms: _254  and  _256
REMARK  102  A    between atoms: _256  and  _257
REMARK  103  A    between atoms: _256  and  _259
REMARK  104  A    between atoms: _259  and  _260
REMARK  105  A    between atoms: _270  and  _272
REMARK  106  A    between atoms: _272  and  _273
REMARK  107  A    between atoms: _272  and  _275
REMARK  108  A    between atoms: _275  and  _276
REMARK  109  A    between atoms: _281  and  _282
REMARK  110  A    between atoms: _284  and  _286
REMARK  111  A    between atoms: _286  and  _287
REMARK  112  A    between atoms: _286  and  _289
REMARK  113  A    between atoms: _289  and  _290
REMARK  114  A    between atoms: _295  and  _297
REMARK  115  A    between atoms: _297  and  _298
REMARK  116  A    between atoms: _297  and  _300
REMARK  117  A    between atoms: _300  and  _301
REMARK  118  A    between atoms: _306  and  _308
REMARK  119  A    between atoms: _308  and  _309
REMARK  120  A    between atoms: _308  and  _311
REMARK  121  A    between atoms: _311  and  _312
REMARK  122  A    between atoms: _312  and  _313
REMARK  123  A    between atoms: _318  and  _320
REMARK  124  A    between atoms: _320  and  _321
REMARK  125  A    between atoms: _320  and  _323
REMARK  126  A    between atoms: _323  and  _324
REMARK  127  A    between atoms: _329  and  _330
REMARK  128  A    between atoms: _332  and  _334
REMARK  129  A    between atoms: _334  and  _335
REMARK  130  A    between atoms: _334  and  _337
REMARK  131  A    between atoms: _337  and  _338
REMARK  132  A    between atoms: _341  and  _343
REMARK  133  A    between atoms: _343  and  _344
REMARK  134  A    between atoms: _347  and  _349
REMARK  135  A    between atoms: _349  and  _350
REMARK  136  A    between atoms: _349  and  _352
REMARK  137  A    between atoms: _352  and  _353
REMARK  138  A    between atoms: _355  and  _357
REMARK  139  A    between atoms: _357  and  _358
REMARK  140  A    between atoms: _357  and  _360
REMARK  141  A    between atoms: _360  and  _361
REMARK  142  A    between atoms: _361  and  _362
REMARK  143  A    between atoms: _364  and  _366
REMARK  144  A    between atoms: _366  and  _367
REMARK  145  A    between atoms: _366  and  _369
REMARK  146  A    between atoms: _369  and  _370
REMARK  147  A    between atoms: _370  and  _371
REMARK  148  A    between atoms: _376  and  _378
REMARK  149  A    between atoms: _378  and  _379
REMARK  150  A    between atoms: _378  and  _381
REMARK  151  A    between atoms: _381  and  _382
REMARK  152  A    between atoms: _384  and  _386
REMARK  153  A    between atoms: _386  and  _387
REMARK  154  A    between atoms: _386  and  _389
REMARK  155  A    between atoms: _389  and  _390
REMARK  156  A    between atoms: _395  and  _396
REMARK  157  A    between atoms: _398  and  _400
REMARK  158  A    between atoms: _400  and  _401
REMARK  159  A    between atoms: _400  and  _403
REMARK  160  A    between atoms: _403  and  _404
REMARK  161  A    between atoms: _406  and  _408
REMARK  162  A    between atoms: _408  and  _409
REMARK  163  A    between atoms: _412  and  _414
REMARK  164  A    between atoms: _414  and  _415
REMARK  165  A    between atoms: _414  and  _417
REMARK  166  A    between atoms: _417  and  _418
REMARK  167  A    between atoms: _428  and  _430
REMARK  168  A    between atoms: _430  and  _431
REMARK  169  A    between atoms: _430  and  _433
REMARK  170  A    between atoms: _433  and  _434
REMARK  171  A    between atoms: _434  and  _435
REMARK  172  A    between atoms: _440  and  _442
REMARK  173  A    between atoms: _442  and  _443
REMARK  174  A    between atoms: _442  and  _445
REMARK  175  A    between atoms: _448  and  _450
REMARK  176  A    between atoms: _450  and  _451
REMARK  177  A    between atoms: _450  and  _453
REMARK  178  A    between atoms: _453  and  _454
REMARK  179  A    between atoms: _457  and  _459
REMARK  180  A    between atoms: _459  and  _460
REMARK  181  A    between atoms: _459  and  _462
REMARK  182  A    between atoms: _462  and  _463
REMARK  183  A    between atoms: _468  and  _469
REMARK  184  A    between atoms: _471  and  _473
REMARK  185  A    between atoms: _473  and  _474
REMARK  186  A    between atoms: _473  and  _476
REMARK  187  A    between atoms: _479  and  _481
REMARK  188  A    between atoms: _481  and  _482
REMARK  189  A    between atoms: _481  and  _484
REMARK  190  A    between atoms: _484  and  _485
REMARK  191  A    between atoms: _491  and  _493
REMARK  192  A    between atoms: _493  and  _494
REMARK  193  A    between atoms: _493  and  _496
REMARK  194  A    between atoms: _496  and  _497
REMARK  195  A    between atoms: _497  and  _498
REMARK  196  A    between atoms: _503  and  _505
REMARK  197  A    between atoms: _505  and  _506
REMARK  198  A    between atoms: _505  and  _508
REMARK  199  A    between atoms: _508  and  _509
REMARK  200  A    between atoms: _511  and  _513
REMARK  201  A    between atoms: _513  and  _514
REMARK  202  A    between atoms: _513  and  _516
REMARK  203  A    between atoms: _516  and  _517
REMARK  204  A    between atoms: _522  and  _524
REMARK  205  A    between atoms: _524  and  _525
REMARK  206  A    between atoms: _524  and  _527
REMARK  207  A    between atoms: _527  and  _528
REMARK  208  A    between atoms: _538  and  _540
REMARK  209  A    between atoms: _540  and  _541
REMARK  210  A    between atoms: _540  and  _543
REMARK  211  A    between atoms: _543  and  _544
REMARK  212  A    between atoms: _547  and  _549
REMARK  213  A    between atoms: _549  and  _550
REMARK  214  A    between atoms: _549  and  _552
REMARK  215  A    between atoms: _552  and  _553
REMARK  216  A    between atoms: _558  and  _559
REMARK  217  A    between atoms: _561  and  _563
REMARK  218  A    between atoms: _563  and  _564
REMARK  219  A    between atoms: _563  and  _566
REMARK  220  A    between atoms: _566  and  _567
REMARK  221  A    between atoms: _570  and  _572
REMARK  222  A    between atoms: _572  and  _573
REMARK  223  A    between atoms: _572  and  _575
REMARK  224  A    between atoms: _575  and  _576
REMARK  225  A    between atoms: _576  and  _577
REMARK  226  A    between atoms: _580  and  _582
REMARK  227  A    between atoms: _582  and  _583
REMARK  228  A    between atoms: _582  and  _585
REMARK  229  A    between atoms: _585  and  _586
REMARK  230  A    between atoms: _591  and  _593
REMARK  231  A    between atoms: _593  and  _594
REMARK  232  A    between atoms: _596  and  _598
REMARK  233  A    between atoms: _598  and  _599
REMARK  234  A    between atoms: _598  and  _601
REMARK  235  A    between atoms: _601  and  _602
REMARK  236  A    between atoms: _602  and  _603
REMARK  237  A    between atoms: _605  and  _607
REMARK  238  A    between atoms: _607  and  _608
REMARK  239  A    between atoms: _607  and  _610
REMARK  240  A    between atoms: _610  and  _611
REMARK  241  A    between atoms: _614  and  _616
REMARK  242  A    between atoms: _616  and  _617
REMARK  243  A    between atoms: _616  and  _619
REMARK  244  A    between atoms: _619  and  _620
REMARK  245  A    between atoms: _630  and  _632
REMARK  246  A    between atoms: _632  and  _633
REMARK  247  A    between atoms: _632  and  _635
REMARK  248  A    between atoms: _635  and  _636
REMARK  249  A    between atoms: _638  and  _640
REMARK  250  A    between atoms: _640  and  _641
REMARK  251  A    between atoms: _640  and  _643
REMARK  252  A    between atoms: _643  and  _644
REMARK  253  A    between atoms: _649  and  _651
REMARK  254  A    between atoms: _651  and  _652
REMARK  255  A    between atoms: _651  and  _654
REMARK  256  A    between atoms: _654  and  _655
REMARK  257  A    between atoms: _661  and  _663
REMARK  258  A    between atoms: _663  and  _664
REMARK  259  A    between atoms: _663  and  _666
REMARK  260  A    between atoms: _666  and  _667
REMARK  261  A    between atoms: _667  and  _668
REMARK  262  A    between atoms: _671  and  _673
REMARK  263  A    between atoms: _673  and  _674
REMARK  264  A    between atoms: _673  and  _676
REMARK  265  A    between atoms: _676  and  _677
REMARK  266  A    between atoms: _687  and  _689
REMARK  267  A    between atoms: _689  and  _690
REMARK  268  A    between atoms: _689  and  _692
REMARK  269  A    between atoms: _692  and  _693
REMARK  270  A    between atoms: _696  and  _698
REMARK  271  A    between atoms: _698  and  _699
REMARK  272  A    between atoms: _698  and  _701
REMARK  273  A    between atoms: _701  and  _702
REMARK  274  A    between atoms: _704  and  _706
REMARK  275  A    between atoms: _706  and  _707
REMARK  276  A    between atoms: _706  and  _709
REMARK  277  A    between atoms: _709  and  _710
REMARK  278  A    between atoms: _712  and  _714
REMARK  279  A    between atoms: _714  and  _715
REMARK  280  A    between atoms: _714  and  _717
REMARK  281  A    between atoms: _717  and  _718
REMARK                            x       y       z     vdW  Elec       q    Type
REMARK                         _______ _______ _______ _____ _____    ______ ____
ROOT
ATOM      1  O   HOH     1       3.411  -7.504  37.691  0.00  0.00    +0.000 OA
ENDROOT
TORSDOF 0
REMARK  Name = ../refined-set-2016/3f5k/3f5k_pocket.pdb
REMARK  281 active torsions:
REMARK  status: ('A' for Active; 'I' for Inactive)
REMARK    1  A    between atoms: _1  and  _3
REMARK    2  A    between atoms: _3  and  _4
REMARK    3  A    between atoms: _3  and  _6
REMARK    4  A    between atoms: _9  and  _11
REMARK    5  A    between atoms: _11  and  _12
REMARK    6  A    between atoms: _11  and  _14
REMARK    7  A    between atoms: _14  and  _15
REMARK    8  A    between atoms: _18  and  _20
REMARK    9  A    between atoms: _20  and  _21
REMARK   10  A    between atoms: _20  and  _23
REMARK   11  A    between atoms: _23  and  _24
REMARK   12  A    between atoms: _26  and  _28
REMARK   13  A    between atoms: _28  and  _29
REMARK   14  A    between atoms: _32  and  _34
REMARK   15  A    between atoms: _34  and  _35
REMARK   16  A    between atoms: _34  and  _37
REMARK   17  A    between atoms: _37  and  _38
REMARK   18  A    between atoms: _38  and  _39
REMARK   19  A    between atoms: _44  and  _46
REMARK   20  A    between atoms: _46  and  _47
REMARK   21  A    between atoms: _46  and  _49
REMARK   22  A    between atoms: _49  and  _50
REMARK   23  A    between atoms: _50  and  _51
REMARK   24  A    between atoms: _51  and  _52
REMARK   25  A    between atoms: _61  and  _63
REMARK   26  A    between atoms: _63  and  _64
REMARK   27  A    between atoms: _63  and  _66
REMARK   28  A    between atoms: _66  and  _67
REMARK   29  A    between atoms: _72  and  _74
REMARK   30  A    between atoms: _74  and  _75
REMARK   31  A    between atoms: _74  and  _77
REMARK   32  A    between atoms: _77  and  _78
REMARK   33  A    between atoms: _83  and  _85
REMARK   34  A    between atoms: _85  and  _86
REMARK   35  A    between atoms: _85  and  _88
REMARK   36  A    between atoms: _88  and  _89
REMARK   37  A    between atoms: _94  and  _95
REMARK   38  A    between atoms: _97  and  _99
REMARK   39  A    between atoms: _99  and  _100
REMARK   40  A    between atoms: _99  and  _102
REMARK   41  A    between atoms: _102  and  _103
REMARK   42  A    between atoms: _108  and  _110
REMARK   43  A    between atoms: _110  and  _111
REMARK   44  A    between atoms: _110  and  _113
REMARK   45  A    between atoms: _113  and  _114
REMARK   46  A    between atoms: _114  and  _115
REMARK   47  A    between atoms: _120  and  _122
REMARK   48  A    between atoms: _122  and  _123
REMARK   49  A    between atoms: _122  and  _125
REMARK   50  A    between atoms: _125  and  _126
REMARK   51  A    between atoms: _126  and  _127
REMARK   52  A    between atoms: _127  and  _128
REMARK   53  A    between atoms: _137  and  _139
REMARK   54  A    between atoms: _139  and  _140
REMARK   55  A    between atoms: _139  and  _142
REMARK   56  A    between atoms: _142  and  _143
REMARK   57  A    between atoms: _146  and  _148
REMARK   58  A    between atoms: _148  and  _149
REMARK   59  A    between atoms: _148  and  _151
REMARK   60  A    between atoms: _151  and  _152
REMARK   61  A    between atoms: _155  and  _157
REMARK   62  A    between atoms: _157  and  _158
REMARK   63  A    between atoms: _157  and  _160
REMARK   64  A    between atoms: _160  and  _161
REMARK   65  A    between atoms: _164  and  _166
REMARK   66  A    between atoms: _166  and  _167
REMARK   67  A    between atoms: _166  and  _169
REMARK   68  A    between atoms: _169  and  _170
REMARK   69  A    between atoms: _173  and  _175
REMARK   70  A    between atoms: _175  and  _176
REMARK   71  A    between atoms: _175  and  _178
REMARK   72  A    between atoms: _178  and  _179
REMARK   73  A    between atoms: _179  and  _180
REMARK   74  A    between atoms: _185  and  _187
REMARK   75  A    between atoms: _187  and  _188
REMARK   76  A    between atoms: _187  and  _190
REMARK   77  A    between atoms: _190  and  _191
REMARK   78  A    between atoms: _194  and  _196
REMARK   79  A    between atoms: _196  and  _197
REMARK   80  A    between atoms: _196  and  _199
REMARK   81  A    between atoms: _199  and  _200
REMARK   82  A    between atoms: _205  and  _207
REMARK   83  A    between atoms: _207  and  _208
REMARK   84  A    between atoms: _207  and  _210
REMARK   85  A    between atoms: _213  and  _215
REMARK   86  A    between atoms: _215  and  _216
REMARK   87  A    between atoms: _215  and  _218
REMARK   88  A    between atoms: _218  and  _219
REMARK   89  A    between atoms: _222  and  _224
REMARK   90  A    between atoms: _224  and  _225
REMARK   91  A    between atoms: _224  and  _227
REMARK   92  A    between atoms: _227  and  _228
REMARK   93  A    between atoms: _231  and  _233
REMARK   94  A    between atoms: _233  and  _234
REMARK   95  A    between atoms: _233  and  _236
REMARK   96  A    between atoms: _236  and  _237
REMARK   97  A    between atoms: _243  and  _245
REMARK   98  A    between atoms: _245  and  _246
REMARK   99  A    between atoms: _245  and  _248
REMARK  100  A    between atoms: _248  and  _249
REMARK  101  A    between atoms: _254  and  _256
REMARK  102  A    between atoms: _256  and  _257
REMARK  103  A    between atoms: _256  and  _259
REMARK  104  A    between atoms: _259  and  _260
REMARK  105  A    between atoms: _270  and  _272
REMARK  106  A    between atoms: _272  and  _273
REMARK  107  A    between atoms: _272  and  _275
REMARK  108  A    between atoms: _275  and  _276
REMARK  109  A    between atoms: _281  and  _282
REMARK  110  A    between atoms: _284  and  _286
REMARK  111  A    between atoms: _286  and  _287
REMARK  112  A    between atoms: _286  and  _289
REMARK  113  A    between atoms: _289  and  _290
REMARK  114  A    between atoms: _295  and  _297
REMARK  115  A    between atoms: _297  and  _298
REMARK  116  A    between atoms: _297  and  _300
REMARK  117  A    between atoms: _300  and  _301
REMARK  118  A    between atoms: _306  and  _308
REMARK  119  A    between atoms: _308  and  _309
REMARK  120  A    between atoms: _308  and  _311
REMARK  121  A    between atoms: _311  and  _312
REMARK  122  A    between atoms: _312  and  _313
REMARK  123  A    between atoms: _318  and  _320
REMARK  124  A    between atoms: _320  and  _321
REMARK  125  A    between atoms: _320  and  _323
REMARK  126  A    between atoms: _323  and  _324
REMARK  127  A    between atoms: _329  and  _330
REMARK  128  A    between atoms: _332  and  _334
REMARK  129  A    between atoms: _334  and  _335
REMARK  130  A    between atoms: _334  and  _337
REMARK  131  A    between atoms: _337  and  _338
REMARK  132  A    between atoms: _341  and  _343
REMARK  133  A    between atoms: _343  and  _344
REMARK  134  A    between atoms: _347  and  _349
REMARK  135  A    between atoms: _349  and  _350
REMARK  136  A    between atoms: _349  and  _352
REMARK  137  A    between atoms: _352  and  _353
REMARK  138  A    between atoms: _355  and  _357
REMARK  139  A    between atoms: _357  and  _358
REMARK  140  A    between atoms: _357  and  _360
REMARK  141  A    between atoms: _360  and  _361
REMARK  142  A    between atoms: _361  and  _362
REMARK  143  A    between atoms: _364  and  _366
REMARK  144  A    between atoms: _366  and  _367
REMARK  145  A    between atoms: _366  and  _369
REMARK  146  A    between atoms: _369  and  _370
REMARK  147  A    between atoms: _370  and  _371
REMARK  148  A    between atoms: _376  and  _378
REMARK  149  A    between atoms: _378  and  _379
REMARK  150  A    between atoms: _378  and  _381
REMARK  151  A    between atoms: _381  and  _382
REMARK  152  A    between atoms: _384  and  _386
REMARK  153  A    between atoms: _386  and  _387
REMARK  154  A    between atoms: _386  and  _389
REMARK  155  A    between atoms: _389  and  _390
REMARK  156  A    between atoms: _395  and  _396
REMARK  157  A    between atoms: _398  and  _400
REMARK  158  A    between atoms: _400  and  _401
REMARK  159  A    between atoms: _400  and  _403
REMARK  160  A    between atoms: _403  and  _404
REMARK  161  A    between atoms: _406  and  _408
REMARK  162  A    between atoms: _408  and  _409
REMARK  163  A    between atoms: _412  and  _414
REMARK  164  A    between atoms: _414  and  _415
REMARK  165  A    between atoms: _414  and  _417
REMARK  166  A    between atoms: _417  and  _418
REMARK  167  A    between atoms: _428  and  _430
REMARK  168  A    between atoms: _430  and  _431
REMARK  169  A    between atoms: _430  and  _433
REMARK  170  A    between atoms: _433  and  _434
REMARK  171  A    between atoms: _434  and  _435
REMARK  172  A    between atoms: _440  and  _442
REMARK  173  A    between atoms: _442  and  _443
REMARK  174  A    between atoms: _442  and  _445
REMARK  175  A    between atoms: _448  and  _450
REMARK  176  A    between atoms: _450  and  _451
REMARK  177  A    between atoms: _450  and  _453
REMARK  178  A    between atoms: _453  and  _454
REMARK  179  A    between atoms: _457  and  _459
REMARK  180  A    between atoms: _459  and  _460
REMARK  181  A    between atoms: _459  and  _462
REMARK  182  A    between atoms: _462  and  _463
REMARK  183  A    between atoms: _468  and  _469
REMARK  184  A    between atoms: _471  and  _473
REMARK  185  A    between atoms: _473  and  _474
REMARK  186  A    between atoms: _473  and  _476
REMARK  187  A    between atoms: _479  and  _481
REMARK  188  A    between atoms: _481  and  _482
REMARK  189  A    between atoms: _481  and  _484
REMARK  190  A    between atoms: _484  and  _485
REMARK  191  A    between atoms: _491  and  _493
REMARK  192  A    between atoms: _493  and  _494
REMARK  193  A    between atoms: _493  and  _496
REMARK  194  A    between atoms: _496  and  _497
REMARK  195  A    between atoms: _497  and  _498
REMARK  196  A    between atoms: _503  and  _505
REMARK  197  A    between atoms: _505  and  _506
REMARK  198  A    between atoms: _505  and  _508
REMARK  199  A    between atoms: _508  and  _509
REMARK  200  A    between atoms: _511  and  _513
REMARK  201  A    between atoms: _513  and  _514
REMARK  202  A    between atoms: _513  and  _516
REMARK  203  A    between atoms: _516  and  _517
REMARK  204  A    between atoms: _522  and  _524
REMARK  205  A    between atoms: _524  and  _525
REMARK  206  A    between atoms: _524  and  _527
REMARK  207  A    between atoms: _527  and  _528
REMARK  208  A    between atoms: _538  and  _540
REMARK  209  A    between atoms: _540  and  _541
REMARK  210  A    between atoms: _540  and  _543
REMARK  211  A    between atoms: _543  and  _544
REMARK  212  A    between atoms: _547  and  _549
REMARK  213  A    between atoms: _549  and  _550
REMARK  214  A    between atoms: _549  and  _552
REMARK  215  A    between atoms: _552  and  _553
REMARK  216  A    between atoms: _558  and  _559
REMARK  217  A    between atoms: _561  and  _563
REMARK  218  A    between atoms: _563  and  _564
REMARK  219  A    between atoms: _563  and  _566
REMARK  220  A    between atoms: _566  and  _567
REMARK  221  A    between atoms: _570  and  _572
REMARK  222  A    between atoms: _572  and  _573
REMARK  223  A    between atoms: _572  and  _575
REMARK  224  A    between atoms: _575  and  _576
REMARK  225  A    between atoms: _576  and  _577
REMARK  226  A    between atoms: _580  and  _582
REMARK  227  A    between atoms: _582  and  _583
REMARK  228  A    between atoms: _582  and  _585
REMARK  229  A    between atoms: _585  and  _586
REMARK  230  A    between atoms: _591  and  _593
REMARK  231  A    between atoms: _593  and  _594
REMARK  232  A    between atoms: _596  and  _598
REMARK  233  A    between atoms: _598  and  _599
REMARK  234  A    between atoms: _598  and  _601
REMARK  235  A    between atoms: _601  and  _602
REMARK  236  A    between atoms: _602  and  _603
REMARK  237  A    between atoms: _605  and  _607
REMARK  238  A    between atoms: _607  and  _608
REMARK  239  A    between atoms: _607  and  _610
REMARK  240  A    between atoms: _610  and  _611
REMARK  241  A    between atoms: _614  and  _616
REMARK  242  A    between atoms: _616  and  _617
REMARK  243  A    between atoms: _616  and  _619
REMARK  244  A    between atoms: _619  and  _620
REMARK  245  A    between atoms: _630  and  _632
REMARK  246  A    between atoms: _632  and  _633
REMARK  247  A    between atoms: _632  and  _635
REMARK  248  A    between atoms: _635  and  _636
REMARK  249  A    between atoms: _638  and  _640
REMARK  250  A    between atoms: _640  and  _641
REMARK  251  A    between atoms: _640  and  _643
REMARK  252  A    between atoms: _643  and  _644
REMARK  253  A    between atoms: _649  and  _651
REMARK  254  A    between atoms: _651  and  _652
REMARK  255  A    between atoms: _651  and  _654
REMARK  256  A    between atoms: _654  and  _655
REMARK  257  A    between atoms: _661  and  _663
REMARK  258  A    between atoms: _663  and  _664
REMARK  259  A    between atoms: _663  and  _666
REMARK  260  A    between atoms: _666  and  _667
REMARK  261  A    between atoms: _667  and  _668
REMARK  262  A    between atoms: _671  and  _673
REMARK  263  A    between atoms: _673  and  _674
REMARK  264  A    between atoms: _673  and  _676
REMARK  265  A    between atoms: _676  and  _677
REMARK  266  A    between atoms: _687  and  _689
REMARK  267  A    between atoms: _689  and  _690
REMARK  268  A    between atoms: _689  and  _692
REMARK  269  A    between atoms: _692  and  _693
REMARK  270  A    between atoms: _696  and  _698
REMARK  271  A    between atoms: _698  and  _699
REMARK  272  A    between atoms: _698  and  _701
REMARK  273  A    between atoms: _701  and  _702
REMARK  274  A    between atoms: _704  and  _706
REMARK  275  A    between atoms: _706  and  _707
REMARK  276  A    between atoms: _706  and  _709
REMARK  277  A    between atoms: _709  and  _710
REMARK  278  A    between atoms: _712  and  _714
REMARK  279  A    between atoms: _714  and  _715
REMARK  280  A    between atoms: _714  and  _717
REMARK  281  A    between atoms: _717  and  _718
REMARK                            x       y       z     vdW  Elec       q    Type
REMARK                         _______ _______ _______ _____ _____    ______ ____
ROOT
ATOM      1  O   HOH     1       1.171   4.086  31.318  0.00  0.00    +0.000 OA
ENDROOT
TORSDOF 0
REMARK  Name = ../refined-set-2016/3f5k/3f5k_pocket.pdb
REMARK  281 active torsions:
REMARK  status: ('A' for Active; 'I' for Inactive)
REMARK    1  A    between atoms: _1  and  _3
REMARK    2  A    between atoms: _3  and  _4
REMARK    3  A    between atoms: _3  and  _6
REMARK    4  A    between atoms: _9  and  _11
REMARK    5  A    between atoms: _11  and  _12
REMARK    6  A    between atoms: _11  and  _14
REMARK    7  A    between atoms: _14  and  _15
REMARK    8  A    between atoms: _18  and  _20
REMARK    9  A    between atoms: _20  and  _21
REMARK   10  A    between atoms: _20  and  _23
REMARK   11  A    between atoms: _23  and  _24
REMARK   12  A    between atoms: _26  and  _28
REMARK   13  A    between atoms: _28  and  _29
REMARK   14  A    between atoms: _32  and  _34
REMARK   15  A    between atoms: _34  and  _35
REMARK   16  A    between atoms: _34  and  _37
REMARK   17  A    between atoms: _37  and  _38
REMARK   18  A    between atoms: _38  and  _39
REMARK   19  A    between atoms: _44  and  _46
REMARK   20  A    between atoms: _46  and  _47
REMARK   21  A    between atoms: _46  and  _49
REMARK   22  A    between atoms: _49  and  _50
REMARK   23  A    between atoms: _50  and  _51
REMARK   24  A    between atoms: _51  and  _52
REMARK   25  A    between atoms: _61  and  _63
REMARK   26  A    between atoms: _63  and  _64
REMARK   27  A    between atoms: _63  and  _66
REMARK   28  A    between atoms: _66  and  _67
REMARK   29  A    between atoms: _72  and  _74
REMARK   30  A    between atoms: _74  and  _75
REMARK   31  A    between atoms: _74  and  _77
REMARK   32  A    between atoms: _77  and  _78
REMARK   33  A    between atoms: _83  and  _85
REMARK   34  A    between atoms: _85  and  _86
REMARK   35  A    between atoms: _85  and  _88
REMARK   36  A    between atoms: _88  and  _89
REMARK   37  A    between atoms: _94  and  _95
REMARK   38  A    between atoms: _97  and  _99
REMARK   39  A    between atoms: _99  and  _100
REMARK   40  A    between atoms: _99  and  _102
REMARK   41  A    between atoms: _102  and  _103
REMARK   42  A    between atoms: _108  and  _110
REMARK   43  A    between atoms: _110  and  _111
REMARK   44  A    between atoms: _110  and  _113
REMARK   45  A    between atoms: _113  and  _114
REMARK   46  A    between atoms: _114  and  _115
REMARK   47  A    between atoms: _120  and  _122
REMARK   48  A    between atoms: _122  and  _123
REMARK   49  A    between atoms: _122  and  _125
REMARK   50  A    between atoms: _125  and  _126
REMARK   51  A    between atoms: _126  and  _127
REMARK   52  A    between atoms: _127  and  _128
REMARK   53  A    between atoms: _137  and  _139
REMARK   54  A    between atoms: _139  and  _140
REMARK   55  A    between atoms: _139  and  _142
REMARK   56  A    between atoms: _142  and  _143
REMARK   57  A    between atoms: _146  and  _148
REMARK   58  A    between atoms: _148  and  _149
REMARK   59  A    between atoms: _148  and  _151
REMARK   60  A    between atoms: _151  and  _152
REMARK   61  A    between atoms: _155  and  _157
REMARK   62  A    between atoms: _157  and  _158
REMARK   63  A    between atoms: _157  and  _160
REMARK   64  A    between atoms: _160  and  _161
REMARK   65  A    between atoms: _164  and  _166
REMARK   66  A    between atoms: _166  and  _167
REMARK   67  A    between atoms: _166  and  _169
REMARK   68  A    between atoms: _169  and  _170
REMARK   69  A    between atoms: _173  and  _175
REMARK   70  A    between atoms: _175  and  _176
REMARK   71  A    between atoms: _175  and  _178
REMARK   72  A    between atoms: _178  and  _179
REMARK   73  A    between atoms: _179  and  _180
REMARK   74  A    between atoms: _185  and  _187
REMARK   75  A    between atoms: _187  and  _188
REMARK   76  A    between atoms: _187  and  _190
REMARK   77  A    between atoms: _190  and  _191
REMARK   78  A    between atoms: _194  and  _196
REMARK   79  A    between atoms: _196  and  _197
REMARK   80  A    between atoms: _196  and  _199
REMARK   81  A    between atoms: _199  and  _200
REMARK   82  A    between atoms: _205  and  _207
REMARK   83  A    between atoms: _207  and  _208
REMARK   84  A    between atoms: _207  and  _210
REMARK   85  A    between atoms: _213  and  _215
REMARK   86  A    between atoms: _215  and  _216
REMARK   87  A    between atoms: _215  and  _218
REMARK   88  A    between atoms: _218  and  _219
REMARK   89  A    between atoms: _222  and  _224
REMARK   90  A    between atoms: _224  and  _225
REMARK   91  A    between atoms: _224  and  _227
REMARK   92  A    between atoms: _227  and  _228
REMARK   93  A    between atoms: _231  and  _233
REMARK   94  A    between atoms: _233  and  _234
REMARK   95  A    between atoms: _233  and  _236
REMARK   96  A    between atoms: _236  and  _237
REMARK   97  A    between atoms: _243  and  _245
REMARK   98  A    between atoms: _245  and  _246
REMARK   99  A    between atoms: _245  and  _248
REMARK  100  A    between atoms: _248  and  _249
REMARK  101  A    between atoms: _254  and  _256
REMARK  102  A    between atoms: _256  and  _257
REMARK  103  A    between atoms: _256  and  _259
REMARK  104  A    between atoms: _259  and  _260
REMARK  105  A    between atoms: _270  and  _272
REMARK  106  A    between atoms: _272  and  _273
REMARK  107  A    between atoms: _272  and  _275
REMARK  108  A    between atoms: _275  and  _276
REMARK  109  A    between atoms: _281  and  _282
REMARK  110  A    between atoms: _284  and  _286
REMARK  111  A    between atoms: _286  and  _287
REMARK  112  A    between atoms: _286  and  _289
REMARK  113  A    between atoms: _289  and  _290
REMARK  114  A    between atoms: _295  and  _297
REMARK  115  A    between atoms: _297  and  _298
REMARK  116  A    between atoms: _297  and  _300
REMARK  117  A    between atoms: _300  and  _301
REMARK  118  A    between atoms: _306  and  _308
REMARK  119  A    between atoms: _308  and  _309
REMARK  120  A    between atoms: _308  and  _311
REMARK  121  A    between atoms: _311  and  _312
REMARK  122  A    between atoms: _312  and  _313
REMARK  123  A    between atoms: _318  and  _320
REMARK  124  A    between atoms: _320  and  _321
REMARK  125  A    between atoms: _320  and  _323
REMARK  126  A    between atoms: _323  and  _324
REMARK  127  A    between atoms: _329  and  _330
REMARK  128  A    between atoms: _332  and  _334
REMARK  129  A    between atoms: _334  and  _335
REMARK  130  A    between atoms: _334  and  _337
REMARK  131  A    between atoms: _337  and  _338
REMARK  132  A    between atoms: _341  and  _343
REMARK  133  A    between atoms: _343  and  _344
REMARK  134  A    between atoms: _347  and  _349
REMARK  135  A    between atoms: _349  and  _350
REMARK  136  A    between atoms: _349  and  _352
REMARK  137  A    between atoms: _352  and  _353
REMARK  138  A    between atoms: _355  and  _357
REMARK  139  A    between atoms: _357  and  _358
REMARK  140  A    between atoms: _357  and  _360
REMARK  141  A    between atoms: _360  and  _361
REMARK  142  A    between atoms: _361  and  _362
REMARK  143  A    between atoms: _364  and  _366
REMARK  144  A    between atoms: _366  and  _367
REMARK  145  A    between atoms: _366  and  _369
REMARK  146  A    between atoms: _369  and  _370
REMARK  147  A    between atoms: _370  and  _371
REMARK  148  A    between atoms: _376  and  _378
REMARK  149  A    between atoms: _378  and  _379
REMARK  150  A    between atoms: _378  and  _381
REMARK  151  A    between atoms: _381  and  _382
REMARK  152  A    between atoms: _384  and  _386
REMARK  153  A    between atoms: _386  and  _387
REMARK  154  A    between atoms: _386  and  _389
REMARK  155  A    between atoms: _389  and  _390
REMARK  156  A    between atoms: _395  and  _396
REMARK  157  A    between atoms: _398  and  _400
REMARK  158  A    between atoms: _400  and  _401
REMARK  159  A    between atoms: _400  and  _403
REMARK  160  A    between atoms: _403  and  _404
REMARK  161  A    between atoms: _406  and  _408
REMARK  162  A    between atoms: _408  and  _409
REMARK  163  A    between atoms: _412  and  _414
REMARK  164  A    between atoms: _414  and  _415
REMARK  165  A    between atoms: _414  and  _417
REMARK  166  A    between atoms: _417  and  _418
REMARK  167  A    between atoms: _428  and  _430
REMARK  168  A    between atoms: _430  and  _431
REMARK  169  A    between atoms: _430  and  _433
REMARK  170  A    between atoms: _433  and  _434
REMARK  171  A    between atoms: _434  and  _435
REMARK  172  A    between atoms: _440  and  _442
REMARK  173  A    between atoms: _442  and  _443
REMARK  174  A    between atoms: _442  and  _445
REMARK  175  A    between atoms: _448  and  _450
REMARK  176  A    between atoms: _450  and  _451
REMARK  177  A    between atoms: _450  and  _453
REMARK  178  A    between atoms: _453  and  _454
REMARK  179  A    between atoms: _457  and  _459
REMARK  180  A    between atoms: _459  and  _460
REMARK  181  A    between atoms: _459  and  _462
REMARK  182  A    between atoms: _462  and  _463
REMARK  183  A    between atoms: _468  and  _469
REMARK  184  A    between atoms: _471  and  _473
REMARK  185  A    between atoms: _473  and  _474
REMARK  186  A    between atoms: _473  and  _476
REMARK  187  A    between atoms: _479  and  _481
REMARK  188  A    between atoms: _481  and  _482
REMARK  189  A    between atoms: _481  and  _484
REMARK  190  A    between atoms: _484  and  _485
REMARK  191  A    between atoms: _491  and  _493
REMARK  192  A    between atoms: _493  and  _494
REMARK  193  A    between atoms: _493  and  _496
REMARK  194  A    between atoms: _496  and  _497
REMARK  195  A    between atoms: _497  and  _498
REMARK  196  A    between atoms: _503  and  _505
REMARK  197  A    between atoms: _505  and  _506
REMARK  198  A    between atoms: _505  and  _508
REMARK  199  A    between atoms: _508  and  _509
REMARK  200  A    between atoms: _511  and  _513
REMARK  201  A    between atoms: _513  and  _514
REMARK  202  A    between atoms: _513  and  _516
REMARK  203  A    between atoms: _516  and  _517
REMARK  204  A    between atoms: _522  and  _524
REMARK  205  A    between atoms: _524  and  _525
REMARK  206  A    between atoms: _524  and  _527
REMARK  207  A    between atoms: _527  and  _528
REMARK  208  A    between atoms: _538  and  _540
REMARK  209  A    between atoms: _540  and  _541
REMARK  210  A    between atoms: _540  and  _543
REMARK  211  A    between atoms: _543  and  _544
REMARK  212  A    between atoms: _547  and  _549
REMARK  213  A    between atoms: _549  and  _550
REMARK  214  A    between atoms: _549  and  _552
REMARK  215  A    between atoms: _552  and  _553
REMARK  216  A    between atoms: _558  and  _559
REMARK  217  A    between atoms: _561  and  _563
REMARK  218  A    between atoms: _563  and  _564
REMARK  219  A    between atoms: _563  and  _566
REMARK  220  A    between atoms: _566  and  _567
REMARK  221  A    between atoms: _570  and  _572
REMARK  222  A    between atoms: _572  and  _573
REMARK  223  A    between atoms: _572  and  _575
REMARK  224  A    between atoms: _575  and  _576
REMARK  225  A    between atoms: _576  and  _577
REMARK  226  A    between atoms: _580  and  _582
REMARK  227  A    between atoms: _582  and  _583
REMARK  228  A    between atoms: _582  and  _585
REMARK  229  A    between atoms: _585  and  _586
REMARK  230  A    between atoms: _591  and  _593
REMARK  231  A    between atoms: _593  and  _594
REMARK  232  A    between atoms: _596  and  _598
REMARK  233  A    between atoms: _598  and  _599
REMARK  234  A    between atoms: _598  and  _601
REMARK  235  A    between atoms: _601  and  _602
REMARK  236  A    between atoms: _602  and  _603
REMARK  237  A    between atoms: _605  and  _607
REMARK  238  A    between atoms: _607  and  _608
REMARK  239  A    between atoms: _607  and  _610
REMARK  240  A    between atoms: _610  and  _611
REMARK  241  A    between atoms: _614  and  _616
REMARK  242  A    between atoms: _616  and  _617
REMARK  243  A    between atoms: _616  and  _619
REMARK  244  A    between atoms: _619  and  _620
REMARK  245  A    between atoms: _630  and  _632
REMARK  246  A    between atoms: _632  and  _633
REMARK  247  A    between atoms: _632  and  _635
REMARK  248  A    between atoms: _635  and  _636
REMARK  249  A    between atoms: _638  and  _640
REMARK  250  A    between atoms: _640  and  _641
REMARK  251  A    between atoms: _640  and  _643
REMARK  252  A    between atoms: _643  and  _644
REMARK  253  A    between atoms: _649  and  _651
REMARK  254  A    between atoms: _651  and  _652
REMARK  255  A    between atoms: _651  and  _654
REMARK  256  A    between atoms: _654  and  _655
REMARK  257  A    between atoms: _661  and  _663
REMARK  258  A    between atoms: _663  and  _664
REMARK  259  A    between atoms: _663  and  _666
REMARK  260  A    between atoms: _666  and  _667
REMARK  261  A    between atoms: _667  and  _668
REMARK  262  A    between atoms: _671  and  _673
REMARK  263  A    between atoms: _673  and  _674
REMARK  264  A    between atoms: _673  and  _676
REMARK  265  A    between atoms: _676  and  _677
REMARK  266  A    between atoms: _687  and  _689
REMARK  267  A    between atoms: _689  and  _690
REMARK  268  A    between atoms: _689  and  _692
REMARK  269  A    between atoms: _692  and  _693
REMARK  270  A    between atoms: _696  and  _698
REMARK  271  A    between atoms: _698  and  _699
REMARK  272  A    between atoms: _698  and  _701
REMARK  273  A    between atoms: _701  and  _702
REMARK  274  A    between atoms: _704  and  _706
REMARK  275  A    between atoms: _706  and  _707
REMARK  276  A    between atoms: _706  and  _709
REMARK  277  A    between atoms: _709  and  _710
REMARK  278  A    between atoms: _712  and  _714
REMARK  279  A    between atoms: _714  and  _715
REMARK  280  A    between atoms: _714  and  _717
REMARK  281  A    between atoms: _717  and  _718
REMARK                            x       y       z     vdW  Elec       q    Type
REMARK                         _______ _______ _______ _____ _____    ______ ____
ROOT
ATOM      1  O   HOH     1       5.970  -4.929  28.881  0.00  0.00    +0.000 OA
ENDROOT
TORSDOF 0
REMARK  Name = ../refined-set-2016/3f5k/3f5k_pocket.pdb
REMARK  281 active torsions:
REMARK  status: ('A' for Active; 'I' for Inactive)
REMARK    1  A    between atoms: _1  and  _3
REMARK    2  A    between atoms: _3  and  _4
REMARK    3  A    between atoms: _3  and  _6
REMARK    4  A    between atoms: _9  and  _11
REMARK    5  A    between atoms: _11  and  _12
REMARK    6  A    between atoms: _11  and  _14
REMARK    7  A    between atoms: _14  and  _15
REMARK    8  A    between atoms: _18  and  _20
REMARK    9  A    between atoms: _20  and  _21
REMARK   10  A    between atoms: _20  and  _23
REMARK   11  A    between atoms: _23  and  _24
REMARK   12  A    between atoms: _26  and  _28
REMARK   13  A    between atoms: _28  and  _29
REMARK   14  A    between atoms: _32  and  _34
REMARK   15  A    between atoms: _34  and  _35
REMARK   16  A    between atoms: _34  and  _37
REMARK   17  A    between atoms: _37  and  _38
REMARK   18  A    between atoms: _38  and  _39
REMARK   19  A    between atoms: _44  and  _46
REMARK   20  A    between atoms: _46  and  _47
REMARK   21  A    between atoms: _46  and  _49
REMARK   22  A    between atoms: _49  and  _50
REMARK   23  A    between atoms: _50  and  _51
REMARK   24  A    between atoms: _51  and  _52
REMARK   25  A    between atoms: _61  and  _63
REMARK   26  A    between atoms: _63  and  _64
REMARK   27  A    between atoms: _63  and  _66
REMARK   28  A    between atoms: _66  and  _67
REMARK   29  A    between atoms: _72  and  _74
REMARK   30  A    between atoms: _74  and  _75
REMARK   31  A    between atoms: _74  and  _77
REMARK   32  A    between atoms: _77  and  _78
REMARK   33  A    between atoms: _83  and  _85
REMARK   34  A    between atoms: _85  and  _86
REMARK   35  A    between atoms: _85  and  _88
REMARK   36  A    between atoms: _88  and  _89
REMARK   37  A    between atoms: _94  and  _95
REMARK   38  A    between atoms: _97  and  _99
REMARK   39  A    between atoms: _99  and  _100
REMARK   40  A    between atoms: _99  and  _102
REMARK   41  A    between atoms: _102  and  _103
REMARK   42  A    between atoms: _108  and  _110
REMARK   43  A    between atoms: _110  and  _111
REMARK   44  A    between atoms: _110  and  _113
REMARK   45  A    between atoms: _113  and  _114
REMARK   46  A    between atoms: _114  and  _115
REMARK   47  A    between atoms: _120  and  _122
REMARK   48  A    between atoms: _122  and  _123
REMARK   49  A    between atoms: _122  and  _125
REMARK   50  A    between atoms: _125  and  _126
REMARK   51  A    between atoms: _126  and  _127
REMARK   52  A    between atoms: _127  and  _128
REMARK   53  A    between atoms: _137  and  _139
REMARK   54  A    between atoms: _139  and  _140
REMARK   55  A    between atoms: _139  and  _142
REMARK   56  A    between atoms: _142  and  _143
REMARK   57  A    between atoms: _146  and  _148
REMARK   58  A    between atoms: _148  and  _149
REMARK   59  A    between atoms: _148  and  _151
REMARK   60  A    between atoms: _151  and  _152
REMARK   61  A    between atoms: _155  and  _157
REMARK   62  A    between atoms: _157  and  _158
REMARK   63  A    between atoms: _157  and  _160
REMARK   64  A    between atoms: _160  and  _161
REMARK   65  A    between atoms: _164  and  _166
REMARK   66  A    between atoms: _166  and  _167
REMARK   67  A    between atoms: _166  and  _169
REMARK   68  A    between atoms: _169  and  _170
REMARK   69  A    between atoms: _173  and  _175
REMARK   70  A    between atoms: _175  and  _176
REMARK   71  A    between atoms: _175  and  _178
REMARK   72  A    between atoms: _178  and  _179
REMARK   73  A    between atoms: _179  and  _180
REMARK   74  A    between atoms: _185  and  _187
REMARK   75  A    between atoms: _187  and  _188
REMARK   76  A    between atoms: _187  and  _190
REMARK   77  A    between atoms: _190  and  _191
REMARK   78  A    between atoms: _194  and  _196
REMARK   79  A    between atoms: _196  and  _197
REMARK   80  A    between atoms: _196  and  _199
REMARK   81  A    between atoms: _199  and  _200
REMARK   82  A    between atoms: _205  and  _207
REMARK   83  A    between atoms: _207  and  _208
REMARK   84  A    between atoms: _207  and  _210
REMARK   85  A    between atoms: _213  and  _215
REMARK   86  A    between atoms: _215  and  _216
REMARK   87  A    between atoms: _215  and  _218
REMARK   88  A    between atoms: _218  and  _219
REMARK   89  A    between atoms: _222  and  _224
REMARK   90  A    between atoms: _224  and  _225
REMARK   91  A    between atoms: _224  and  _227
REMARK   92  A    between atoms: _227  and  _228
REMARK   93  A    between atoms: _231  and  _233
REMARK   94  A    between atoms: _233  and  _234
REMARK   95  A    between atoms: _233  and  _236
REMARK   96  A    between atoms: _236  and  _237
REMARK   97  A    between atoms: _243  and  _245
REMARK   98  A    between atoms: _245  and  _246
REMARK   99  A    between atoms: _245  and  _248
REMARK  100  A    between atoms: _248  and  _249
REMARK  101  A    between atoms: _254  and  _256
REMARK  102  A    between atoms: _256  and  _257
REMARK  103  A    between atoms: _256  and  _259
REMARK  104  A    between atoms: _259  and  _260
REMARK  105  A    between atoms: _270  and  _272
REMARK  106  A    between atoms: _272  and  _273
REMARK  107  A    between atoms: _272  and  _275
REMARK  108  A    between atoms: _275  and  _276
REMARK  109  A    between atoms: _281  and  _282
REMARK  110  A    between atoms: _284  and  _286
REMARK  111  A    between atoms: _286  and  _287
REMARK  112  A    between atoms: _286  and  _289
REMARK  113  A    between atoms: _289  and  _290
REMARK  114  A    between atoms: _295  and  _297
REMARK  115  A    between atoms: _297  and  _298
REMARK  116  A    between atoms: _297  and  _300
REMARK  117  A    between atoms: _300  and  _301
REMARK  118  A    between atoms: _306  and  _308
REMARK  119  A    between atoms: _308  and  _309
REMARK  120  A    between atoms: _308  and  _311
REMARK  121  A    between atoms: _311  and  _312
REMARK  122  A    between atoms: _312  and  _313
REMARK  123  A    between atoms: _318  and  _320
REMARK  124  A    between atoms: _320  and  _321
REMARK  125  A    between atoms: _320  and  _323
REMARK  126  A    between atoms: _323  and  _324
REMARK  127  A    between atoms: _329  and  _330
REMARK  128  A    between atoms: _332  and  _334
REMARK  129  A    between atoms: _334  and  _335
REMARK  130  A    between atoms: _334  and  _337
REMARK  131  A    between atoms: _337  and  _338
REMARK  132  A    between atoms: _341  and  _343
REMARK  133  A    between atoms: _343  and  _344
REMARK  134  A    between atoms: _347  and  _349
REMARK  135  A    between atoms: _349  and  _350
REMARK  136  A    between atoms: _349  and  _352
REMARK  137  A    between atoms: _352  and  _353
REMARK  138  A    between atoms: _355  and  _357
REMARK  139  A    between atoms: _357  and  _358
REMARK  140  A    between atoms: _357  and  _360
REMARK  141  A    between atoms: _360  and  _361
REMARK  142  A    between atoms: _361  and  _362
REMARK  143  A    between atoms: _364  and  _366
REMARK  144  A    between atoms: _366  and  _367
REMARK  145  A    between atoms: _366  and  _369
REMARK  146  A    between atoms: _369  and  _370
REMARK  147  A    between atoms: _370  and  _371
REMARK  148  A    between atoms: _376  and  _378
REMARK  149  A    between atoms: _378  and  _379
REMARK  150  A    between atoms: _378  and  _381
REMARK  151  A    between atoms: _381  and  _382
REMARK  152  A    between atoms: _384  and  _386
REMARK  153  A    between atoms: _386  and  _387
REMARK  154  A    between atoms: _386  and  _389
REMARK  155  A    between atoms: _389  and  _390
REMARK  156  A    between atoms: _395  and  _396
REMARK  157  A    between atoms: _398  and  _400
REMARK  158  A    between atoms: _400  and  _401
REMARK  159  A    between atoms: _400  and  _403
REMARK  160  A    between atoms: _403  and  _404
REMARK  161  A    between atoms: _406  and  _408
REMARK  162  A    between atoms: _408  and  _409
REMARK  163  A    between atoms: _412  and  _414
REMARK  164  A    between atoms: _414  and  _415
REMARK  165  A    between atoms: _414  and  _417
REMARK  166  A    between atoms: _417  and  _418
REMARK  167  A    between atoms: _428  and  _430
REMARK  168  A    between atoms: _430  and  _431
REMARK  169  A    between atoms: _430  and  _433
REMARK  170  A    between atoms: _433  and  _434
REMARK  171  A    between atoms: _434  and  _435
REMARK  172  A    between atoms: _440  and  _442
REMARK  173  A    between atoms: _442  and  _443
REMARK  174  A    between atoms: _442  and  _445
REMARK  175  A    between atoms: _448  and  _450
REMARK  176  A    between atoms: _450  and  _451
REMARK  177  A    between atoms: _450  and  _453
REMARK  178  A    between atoms: _453  and  _454
REMARK  179  A    between atoms: _457  and  _459
REMARK  180  A    between atoms: _459  and  _460
REMARK  181  A    between atoms: _459  and  _462
REMARK  182  A    between atoms: _462  and  _463
REMARK  183  A    between atoms: _468  and  _469
REMARK  184  A    between atoms: _471  and  _473
REMARK  185  A    between atoms: _473  and  _474
REMARK  186  A    between atoms: _473  and  _476
REMARK  187  A    between atoms: _479  and  _481
REMARK  188  A    between atoms: _481  and  _482
REMARK  189  A    between atoms: _481  and  _484
REMARK  190  A    between atoms: _484  and  _485
REMARK  191  A    between atoms: _491  and  _493
REMARK  192  A    between atoms: _493  and  _494
REMARK  193  A    between atoms: _493  and  _496
REMARK  194  A    between atoms: _496  and  _497
REMARK  195  A    between atoms: _497  and  _498
REMARK  196  A    between atoms: _503  and  _505
REMARK  197  A    between atoms: _505  and  _506
REMARK  198  A    between atoms: _505  and  _508
REMARK  199  A    between atoms: _508  and  _509
REMARK  200  A    between atoms: _511  and  _513
REMARK  201  A    between atoms: _513  and  _514
REMARK  202  A    between atoms: _513  and  _516
REMARK  203  A    between atoms: _516  and  _517
REMARK  204  A    between atoms: _522  and  _524
REMARK  205  A    between atoms: _524  and  _525
REMARK  206  A    between atoms: _524  and  _527
REMARK  207  A    between atoms: _527  and  _528
REMARK  208  A    between atoms: _538  and  _540
REMARK  209  A    between atoms: _540  and  _541
REMARK  210  A    between atoms: _540  and  _543
REMARK  211  A    between atoms: _543  and  _544
REMARK  212  A    between atoms: _547  and  _549
REMARK  213  A    between atoms: _549  and  _550
REMARK  214  A    between atoms: _549  and  _552
REMARK  215  A    between atoms: _552  and  _553
REMARK  216  A    between atoms: _558  and  _559
REMARK  217  A    between atoms: _561  and  _563
REMARK  218  A    between atoms: _563  and  _564
REMARK  219  A    between atoms: _563  and  _566
REMARK  220  A    between atoms: _566  and  _567
REMARK  221  A    between atoms: _570  and  _572
REMARK  222  A    between atoms: _572  and  _573
REMARK  223  A    between atoms: _572  and  _575
REMARK  224  A    between atoms: _575  and  _576
REMARK  225  A    between atoms: _576  and  _577
REMARK  226  A    between atoms: _580  and  _582
REMARK  227  A    between atoms: _582  and  _583
REMARK  228  A    between atoms: _582  and  _585
REMARK  229  A    between atoms: _585  and  _586
REMARK  230  A    between atoms: _591  and  _593
REMARK  231  A    between atoms: _593  and  _594
REMARK  232  A    between atoms: _596  and  _598
REMARK  233  A    between atoms: _598  and  _599
REMARK  234  A    between atoms: _598  and  _601
REMARK  235  A    between atoms: _601  and  _602
REMARK  236  A    between atoms: _602  and  _603
REMARK  237  A    between atoms: _605  and  _607
REMARK  238  A    between atoms: _607  and  _608
REMARK  239  A    between atoms: _607  and  _610
REMARK  240  A    between atoms: _610  and  _611
REMARK  241  A    between atoms: _614  and  _616
REMARK  242  A    between atoms: _616  and  _617
REMARK  243  A    between atoms: _616  and  _619
REMARK  244  A    between atoms: _619  and  _620
REMARK  245  A    between atoms: _630  and  _632
REMARK  246  A    between atoms: _632  and  _633
REMARK  247  A    between atoms: _632  and  _635
REMARK  248  A    between atoms: _635  and  _636
REMARK  249  A    between atoms: _638  and  _640
REMARK  250  A    between atoms: _640  and  _641
REMARK  251  A    between atoms: _640  and  _643
REMARK  252  A    between atoms: _643  and  _644
REMARK  253  A    between atoms: _649  and  _651
REMARK  254  A    between atoms: _651  and  _652
REMARK  255  A    between atoms: _651  and  _654
REMARK  256  A    between atoms: _654  and  _655
REMARK  257  A    between atoms: _661  and  _663
REMARK  258  A    between atoms: _663  and  _664
REMARK  259  A    between atoms: _663  and  _666
REMARK  260  A    between atoms: _666  and  _667
REMARK  261  A    between atoms: _667  and  _668
REMARK  262  A    between atoms: _671  and  _673
REMARK  263  A    between atoms: _673  and  _674
REMARK  264  A    between atoms: _673  and  _676
REMARK  265  A    between atoms: _676  and  _677
REMARK  266  A    between atoms: _687  and  _689
REMARK  267  A    between atoms: _689  and  _690
REMARK  268  A    between atoms: _689  and  _692
REMARK  269  A    between atoms: _692  and  _693
REMARK  270  A    between atoms: _696  and  _698
REMARK  271  A    between atoms: _698  and  _699
REMARK  272  A    between atoms: _698  and  _701
REMARK  273  A    between atoms: _701  and  _702
REMARK  274  A    between atoms: _704  and  _706
REMARK  275  A    between atoms: _706  and  _707
REMARK  276  A    between atoms: _706  and  _709
REMARK  277  A    between atoms: _709  and  _710
REMARK  278  A    between atoms: _712  and  _714
REMARK  279  A    between atoms: _714  and  _715
REMARK  280  A    between atoms: _714  and  _717
REMARK  281  A    between atoms: _717  and  _718
REMARK                            x       y       z     vdW  Elec       q    Type
REMARK                         _______ _______ _______ _____ _____    ______ ____
ROOT
ATOM      1  O   HOH     1       4.017   0.098  49.310  0.00  0.00    +0.000 OA
ENDROOT
TORSDOF 0
REMARK  Name = ../refined-set-2016/3f5k/3f5k_pocket.pdb
REMARK  281 active torsions:
REMARK  status: ('A' for Active; 'I' for Inactive)
REMARK    1  A    between atoms: _1  and  _3
REMARK    2  A    between atoms: _3  and  _4
REMARK    3  A    between atoms: _3  and  _6
REMARK    4  A    between atoms: _9  and  _11
REMARK    5  A    between atoms: _11  and  _12
REMARK    6  A    between atoms: _11  and  _14
REMARK    7  A    between atoms: _14  and  _15
REMARK    8  A    between atoms: _18  and  _20
REMARK    9  A    between atoms: _20  and  _21
REMARK   10  A    between atoms: _20  and  _23
REMARK   11  A    between atoms: _23  and  _24
REMARK   12  A    between atoms: _26  and  _28
REMARK   13  A    between atoms: _28  and  _29
REMARK   14  A    between atoms: _32  and  _34
REMARK   15  A    between atoms: _34  and  _35
REMARK   16  A    between atoms: _34  and  _37
REMARK   17  A    between atoms: _37  and  _38
REMARK   18  A    between atoms: _38  and  _39
REMARK   19  A    between atoms: _44  and  _46
REMARK   20  A    between atoms: _46  and  _47
REMARK   21  A    between atoms: _46  and  _49
REMARK   22  A    between atoms: _49  and  _50
REMARK   23  A    between atoms: _50  and  _51
REMARK   24  A    between atoms: _51  and  _52
REMARK   25  A    between atoms: _61  and  _63
REMARK   26  A    between atoms: _63  and  _64
REMARK   27  A    between atoms: _63  and  _66
REMARK   28  A    between atoms: _66  and  _67
REMARK   29  A    between atoms: _72  and  _74
REMARK   30  A    between atoms: _74  and  _75
REMARK   31  A    between atoms: _74  and  _77
REMARK   32  A    between atoms: _77  and  _78
REMARK   33  A    between atoms: _83  and  _85
REMARK   34  A    between atoms: _85  and  _86
REMARK   35  A    between atoms: _85  and  _88
REMARK   36  A    between atoms: _88  and  _89
REMARK   37  A    between atoms: _94  and  _95
REMARK   38  A    between atoms: _97  and  _99
REMARK   39  A    between atoms: _99  and  _100
REMARK   40  A    between atoms: _99  and  _102
REMARK   41  A    between atoms: _102  and  _103
REMARK   42  A    between atoms: _108  and  _110
REMARK   43  A    between atoms: _110  and  _111
REMARK   44  A    between atoms: _110  and  _113
REMARK   45  A    between atoms: _113  and  _114
REMARK   46  A    between atoms: _114  and  _115
REMARK   47  A    between atoms: _120  and  _122
REMARK   48  A    between atoms: _122  and  _123
REMARK   49  A    between atoms: _122  and  _125
REMARK   50  A    between atoms: _125  and  _126
REMARK   51  A    between atoms: _126  and  _127
REMARK   52  A    between atoms: _127  and  _128
REMARK   53  A    between atoms: _137  and  _139
REMARK   54  A    between atoms: _139  and  _140
REMARK   55  A    between atoms: _139  and  _142
REMARK   56  A    between atoms: _142  and  _143
REMARK   57  A    between atoms: _146  and  _148
REMARK   58  A    between atoms: _148  and  _149
REMARK   59  A    between atoms: _148  and  _151
REMARK   60  A    between atoms: _151  and  _152
REMARK   61  A    between atoms: _155  and  _157
REMARK   62  A    between atoms: _157  and  _158
REMARK   63  A    between atoms: _157  and  _160
REMARK   64  A    between atoms: _160  and  _161
REMARK   65  A    between atoms: _164  and  _166
REMARK   66  A    between atoms: _166  and  _167
REMARK   67  A    between atoms: _166  and  _169
REMARK   68  A    between atoms: _169  and  _170
REMARK   69  A    between atoms: _173  and  _175
REMARK   70  A    between atoms: _175  and  _176
REMARK   71  A    between atoms: _175  and  _178
REMARK   72  A    between atoms: _178  and  _179
REMARK   73  A    between atoms: _179  and  _180
REMARK   74  A    between atoms: _185  and  _187
REMARK   75  A    between atoms: _187  and  _188
REMARK   76  A    between atoms: _187  and  _190
REMARK   77  A    between atoms: _190  and  _191
REMARK   78  A    between atoms: _194  and  _196
REMARK   79  A    between atoms: _196  and  _197
REMARK   80  A    between atoms: _196  and  _199
REMARK   81  A    between atoms: _199  and  _200
REMARK   82  A    between atoms: _205  and  _207
REMARK   83  A    between atoms: _207  and  _208
REMARK   84  A    between atoms: _207  and  _210
REMARK   85  A    between atoms: _213  and  _215
REMARK   86  A    between atoms: _215  and  _216
REMARK   87  A    between atoms: _215  and  _218
REMARK   88  A    between atoms: _218  and  _219
REMARK   89  A    between atoms: _222  and  _224
REMARK   90  A    between atoms: _224  and  _225
REMARK   91  A    between atoms: _224  and  _227
REMARK   92  A    between atoms: _227  and  _228
REMARK   93  A    between atoms: _231  and  _233
REMARK   94  A    between atoms: _233  and  _234
REMARK   95  A    between atoms: _233  and  _236
REMARK   96  A    between atoms: _236  and  _237
REMARK   97  A    between atoms: _243  and  _245
REMARK   98  A    between atoms: _245  and  _246
REMARK   99  A    between atoms: _245  and  _248
REMARK  100  A    between atoms: _248  and  _249
REMARK  101  A    between atoms: _254  and  _256
REMARK  102  A    between atoms: _256  and  _257
REMARK  103  A    between atoms: _256  and  _259
REMARK  104  A    between atoms: _259  and  _260
REMARK  105  A    between atoms: _270  and  _272
REMARK  106  A    between atoms: _272  and  _273
REMARK  107  A    between atoms: _272  and  _275
REMARK  108  A    between atoms: _275  and  _276
REMARK  109  A    between atoms: _281  and  _282
REMARK  110  A    between atoms: _284  and  _286
REMARK  111  A    between atoms: _286  and  _287
REMARK  112  A    between atoms: _286  and  _289
REMARK  113  A    between atoms: _289  and  _290
REMARK  114  A    between atoms: _295  and  _297
REMARK  115  A    between atoms: _297  and  _298
REMARK  116  A    between atoms: _297  and  _300
REMARK  117  A    between atoms: _300  and  _301
REMARK  118  A    between atoms: _306  and  _308
REMARK  119  A    between atoms: _308  and  _309
REMARK  120  A    between atoms: _308  and  _311
REMARK  121  A    between atoms: _311  and  _312
REMARK  122  A    between atoms: _312  and  _313
REMARK  123  A    between atoms: _318  and  _320
REMARK  124  A    between atoms: _320  and  _321
REMARK  125  A    between atoms: _320  and  _323
REMARK  126  A    between atoms: _323  and  _324
REMARK  127  A    between atoms: _329  and  _330
REMARK  128  A    between atoms: _332  and  _334
REMARK  129  A    between atoms: _334  and  _335
REMARK  130  A    between atoms: _334  and  _337
REMARK  131  A    between atoms: _337  and  _338
REMARK  132  A    between atoms: _341  and  _343
REMARK  133  A    between atoms: _343  and  _344
REMARK  134  A    between atoms: _347  and  _349
REMARK  135  A    between atoms: _349  and  _350
REMARK  136  A    between atoms: _349  and  _352
REMARK  137  A    between atoms: _352  and  _353
REMARK  138  A    between atoms: _355  and  _357
REMARK  139  A    between atoms: _357  and  _358
REMARK  140  A    between atoms: _357  and  _360
REMARK  141  A    between atoms: _360  and  _361
REMARK  142  A    between atoms: _361  and  _362
REMARK  143  A    between atoms: _364  and  _366
REMARK  144  A    between atoms: _366  and  _367
REMARK  145  A    between atoms: _366  and  _369
REMARK  146  A    between atoms: _369  and  _370
REMARK  147  A    between atoms: _370  and  _371
REMARK  148  A    between atoms: _376  and  _378
REMARK  149  A    between atoms: _378  and  _379
REMARK  150  A    between atoms: _378  and  _381
REMARK  151  A    between atoms: _381  and  _382
REMARK  152  A    between atoms: _384  and  _386
REMARK  153  A    between atoms: _386  and  _387
REMARK  154  A    between atoms: _386  and  _389
REMARK  155  A    between atoms: _389  and  _390
REMARK  156  A    between atoms: _395  and  _396
REMARK  157  A    between atoms: _398  and  _400
REMARK  158  A    between atoms: _400  and  _401
REMARK  159  A    between atoms: _400  and  _403
REMARK  160  A    between atoms: _403  and  _404
REMARK  161  A    between atoms: _406  and  _408
REMARK  162  A    between atoms: _408  and  _409
REMARK  163  A    between atoms: _412  and  _414
REMARK  164  A    between atoms: _414  and  _415
REMARK  165  A    between atoms: _414  and  _417
REMARK  166  A    between atoms: _417  and  _418
REMARK  167  A    between atoms: _428  and  _430
REMARK  168  A    between atoms: _430  and  _431
REMARK  169  A    between atoms: _430  and  _433
REMARK  170  A    between atoms: _433  and  _434
REMARK  171  A    between atoms: _434  and  _435
REMARK  172  A    between atoms: _440  and  _442
REMARK  173  A    between atoms: _442  and  _443
REMARK  174  A    between atoms: _442  and  _445
REMARK  175  A    between atoms: _448  and  _450
REMARK  176  A    between atoms: _450  and  _451
REMARK  177  A    between atoms: _450  and  _453
REMARK  178  A    between atoms: _453  and  _454
REMARK  179  A    between atoms: _457  and  _459
REMARK  180  A    between atoms: _459  and  _460
REMARK  181  A    between atoms: _459  and  _462
REMARK  182  A    between atoms: _462  and  _463
REMARK  183  A    between atoms: _468  and  _469
REMARK  184  A    between atoms: _471  and  _473
REMARK  185  A    between atoms: _473  and  _474
REMARK  186  A    between atoms: _473  and  _476
REMARK  187  A    between atoms: _479  and  _481
REMARK  188  A    between atoms: _481  and  _482
REMARK  189  A    between atoms: _481  and  _484
REMARK  190  A    between atoms: _484  and  _485
REMARK  191  A    between atoms: _491  and  _493
REMARK  192  A    between atoms: _493  and  _494
REMARK  193  A    between atoms: _493  and  _496
REMARK  194  A    between atoms: _496  and  _497
REMARK  195  A    between atoms: _497  and  _498
REMARK  196  A    between atoms: _503  and  _505
REMARK  197  A    between atoms: _505  and  _506
REMARK  198  A    between atoms: _505  and  _508
REMARK  199  A    between atoms: _508  and  _509
REMARK  200  A    between atoms: _511  and  _513
REMARK  201  A    between atoms: _513  and  _514
REMARK  202  A    between atoms: _513  and  _516
REMARK  203  A    between atoms: _516  and  _517
REMARK  204  A    between atoms: _522  and  _524
REMARK  205  A    between atoms: _524  and  _525
REMARK  206  A    between atoms: _524  and  _527
REMARK  207  A    between atoms: _527  and  _528
REMARK  208  A    between atoms: _538  and  _540
REMARK  209  A    between atoms: _540  and  _541
REMARK  210  A    between atoms: _540  and  _543
REMARK  211  A    between atoms: _543  and  _544
REMARK  212  A    between atoms: _547  and  _549
REMARK  213  A    between atoms: _549  and  _550
REMARK  214  A    between atoms: _549  and  _552
REMARK  215  A    between atoms: _552  and  _553
REMARK  216  A    between atoms: _558  and  _559
REMARK  217  A    between atoms: _561  and  _563
REMARK  218  A    between atoms: _563  and  _564
REMARK  219  A    between atoms: _563  and  _566
REMARK  220  A    between atoms: _566  and  _567
REMARK  221  A    between atoms: _570  and  _572
REMARK  222  A    between atoms: _572  and  _573
REMARK  223  A    between atoms: _572  and  _575
REMARK  224  A    between atoms: _575  and  _576
REMARK  225  A    between atoms: _576  and  _577
REMARK  226  A    between atoms: _580  and  _582
REMARK  227  A    between atoms: _582  and  _583
REMARK  228  A    between atoms: _582  and  _585
REMARK  229  A    between atoms: _585  and  _586
REMARK  230  A    between atoms: _591  and  _593
REMARK  231  A    between atoms: _593  and  _594
REMARK  232  A    between atoms: _596  and  _598
REMARK  233  A    between atoms: _598  and  _599
REMARK  234  A    between atoms: _598  and  _601
REMARK  235  A    between atoms: _601  and  _602
REMARK  236  A    between atoms: _602  and  _603
REMARK  237  A    between atoms: _605  and  _607
REMARK  238  A    between atoms: _607  and  _608
REMARK  239  A    between atoms: _607  and  _610
REMARK  240  A    between atoms: _610  and  _611
REMARK  241  A    between atoms: _614  and  _616
REMARK  242  A    between atoms: _616  and  _617
REMARK  243  A    between atoms: _616  and  _619
REMARK  244  A    between atoms: _619  and  _620
REMARK  245  A    between atoms: _630  and  _632
REMARK  246  A    between atoms: _632  and  _633
REMARK  247  A    between atoms: _632  and  _635
REMARK  248  A    between atoms: _635  and  _636
REMARK  249  A    between atoms: _638  and  _640
REMARK  250  A    between atoms: _640  and  _641
REMARK  251  A    between atoms: _640  and  _643
REMARK  252  A    between atoms: _643  and  _644
REMARK  253  A    between atoms: _649  and  _651
REMARK  254  A    between atoms: _651  and  _652
REMARK  255  A    between atoms: _651  and  _654
REMARK  256  A    between atoms: _654  and  _655
REMARK  257  A    between atoms: _661  and  _663
REMARK  258  A    between atoms: _663  and  _664
REMARK  259  A    between atoms: _663  and  _666
REMARK  260  A    between atoms: _666  and  _667
REMARK  261  A    between atoms: _667  and  _668
REMARK  262  A    between atoms: _671  and  _673
REMARK  263  A    between atoms: _673  and  _674
REMARK  264  A    between atoms: _673  and  _676
REMARK  265  A    between atoms: _676  and  _677
REMARK  266  A    between atoms: _687  and  _689
REMARK  267  A    between atoms: _689  and  _690
REMARK  268  A    between atoms: _689  and  _692
REMARK  269  A    between atoms: _692  and  _693
REMARK  270  A    between atoms: _696  and  _698
REMARK  271  A    between atoms: _698  and  _699
REMARK  272  A    between atoms: _698  and  _701
REMARK  273  A    between atoms: _701  and  _702
REMARK  274  A    between atoms: _704  and  _706
REMARK  275  A    between atoms: _706  and  _707
REMARK  276  A    between atoms: _706  and  _709
REMARK  277  A    between atoms: _709  and  _710
REMARK  278  A    between atoms: _712  and  _714
REMARK  279  A    between atoms: _714  and  _715
REMARK  280  A    between atoms: _714  and  _717
REMARK  281  A    between atoms: _717  and  _718
REMARK                            x       y       z     vdW  Elec       q    Type
REMARK                         _______ _______ _______ _____ _____    ______ ____
ROOT
ATOM      1  O   HOH     1      -1.480  -3.608  38.402  0.00  0.00    +0.000 OA
ENDROOT
TORSDOF 0
REMARK  Name = ../refined-set-2016/3f5k/3f5k_pocket.pdb
REMARK  281 active torsions:
REMARK  status: ('A' for Active; 'I' for Inactive)
REMARK    1  A    between atoms: _1  and  _3
REMARK    2  A    between atoms: _3  and  _4
REMARK    3  A    between atoms: _3  and  _6
REMARK    4  A    between atoms: _9  and  _11
REMARK    5  A    between atoms: _11  and  _12
REMARK    6  A    between atoms: _11  and  _14
REMARK    7  A    between atoms: _14  and  _15
REMARK    8  A    between atoms: _18  and  _20
REMARK    9  A    between atoms: _20  and  _21
REMARK   10  A    between atoms: _20  and  _23
REMARK   11  A    between atoms: _23  and  _24
REMARK   12  A    between atoms: _26  and  _28
REMARK   13  A    between atoms: _28  and  _29
REMARK   14  A    between atoms: _32  and  _34
REMARK   15  A    between atoms: _34  and  _35
REMARK   16  A    between atoms: _34  and  _37
REMARK   17  A    between atoms: _37  and  _38
REMARK   18  A    between atoms: _38  and  _39
REMARK   19  A    between atoms: _44  and  _46
REMARK   20  A    between atoms: _46  and  _47
REMARK   21  A    between atoms: _46  and  _49
REMARK   22  A    between atoms: _49  and  _50
REMARK   23  A    between atoms: _50  and  _51
REMARK   24  A    between atoms: _51  and  _52
REMARK   25  A    between atoms: _61  and  _63
REMARK   26  A    between atoms: _63  and  _64
REMARK   27  A    between atoms: _63  and  _66
REMARK   28  A    between atoms: _66  and  _67
REMARK   29  A    between atoms: _72  and  _74
REMARK   30  A    between atoms: _74  and  _75
REMARK   31  A    between atoms: _74  and  _77
REMARK   32  A    between atoms: _77  and  _78
REMARK   33  A    between atoms: _83  and  _85
REMARK   34  A    between atoms: _85  and  _86
REMARK   35  A    between atoms: _85  and  _88
REMARK   36  A    between atoms: _88  and  _89
REMARK   37  A    between atoms: _94  and  _95
REMARK   38  A    between atoms: _97  and  _99
REMARK   39  A    between atoms: _99  and  _100
REMARK   40  A    between atoms: _99  and  _102
REMARK   41  A    between atoms: _102  and  _103
REMARK   42  A    between atoms: _108  and  _110
REMARK   43  A    between atoms: _110  and  _111
REMARK   44  A    between atoms: _110  and  _113
REMARK   45  A    between atoms: _113  and  _114
REMARK   46  A    between atoms: _114  and  _115
REMARK   47  A    between atoms: _120  and  _122
REMARK   48  A    between atoms: _122  and  _123
REMARK   49  A    between atoms: _122  and  _125
REMARK   50  A    between atoms: _125  and  _126
REMARK   51  A    between atoms: _126  and  _127
REMARK   52  A    between atoms: _127  and  _128
REMARK   53  A    between atoms: _137  and  _139
REMARK   54  A    between atoms: _139  and  _140
REMARK   55  A    between atoms: _139  and  _142
REMARK   56  A    between atoms: _142  and  _143
REMARK   57  A    between atoms: _146  and  _148
REMARK   58  A    between atoms: _148  and  _149
REMARK   59  A    between atoms: _148  and  _151
REMARK   60  A    between atoms: _151  and  _152
REMARK   61  A    between atoms: _155  and  _157
REMARK   62  A    between atoms: _157  and  _158
REMARK   63  A    between atoms: _157  and  _160
REMARK   64  A    between atoms: _160  and  _161
REMARK   65  A    between atoms: _164  and  _166
REMARK   66  A    between atoms: _166  and  _167
REMARK   67  A    between atoms: _166  and  _169
REMARK   68  A    between atoms: _169  and  _170
REMARK   69  A    between atoms: _173  and  _175
REMARK   70  A    between atoms: _175  and  _176
REMARK   71  A    between atoms: _175  and  _178
REMARK   72  A    between atoms: _178  and  _179
REMARK   73  A    between atoms: _179  and  _180
REMARK   74  A    between atoms: _185  and  _187
REMARK   75  A    between atoms: _187  and  _188
REMARK   76  A    between atoms: _187  and  _190
REMARK   77  A    between atoms: _190  and  _191
REMARK   78  A    between atoms: _194  and  _196
REMARK   79  A    between atoms: _196  and  _197
REMARK   80  A    between atoms: _196  and  _199
REMARK   81  A    between atoms: _199  and  _200
REMARK   82  A    between atoms: _205  and  _207
REMARK   83  A    between atoms: _207  and  _208
REMARK   84  A    between atoms: _207  and  _210
REMARK   85  A    between atoms: _213  and  _215
REMARK   86  A    between atoms: _215  and  _216
REMARK   87  A    between atoms: _215  and  _218
REMARK   88  A    between atoms: _218  and  _219
REMARK   89  A    between atoms: _222  and  _224
REMARK   90  A    between atoms: _224  and  _225
REMARK   91  A    between atoms: _224  and  _227
REMARK   92  A    between atoms: _227  and  _228
REMARK   93  A    between atoms: _231  and  _233
REMARK   94  A    between atoms: _233  and  _234
REMARK   95  A    between atoms: _233  and  _236
REMARK   96  A    between atoms: _236  and  _237
REMARK   97  A    between atoms: _243  and  _245
REMARK   98  A    between atoms: _245  and  _246
REMARK   99  A    between atoms: _245  and  _248
REMARK  100  A    between atoms: _248  and  _249
REMARK  101  A    between atoms: _254  and  _256
REMARK  102  A    between atoms: _256  and  _257
REMARK  103  A    between atoms: _256  and  _259
REMARK  104  A    between atoms: _259  and  _260
REMARK  105  A    between atoms: _270  and  _272
REMARK  106  A    between atoms: _272  and  _273
REMARK  107  A    between atoms: _272  and  _275
REMARK  108  A    between atoms: _275  and  _276
REMARK  109  A    between atoms: _281  and  _282
REMARK  110  A    between atoms: _284  and  _286
REMARK  111  A    between atoms: _286  and  _287
REMARK  112  A    between atoms: _286  and  _289
REMARK  113  A    between atoms: _289  and  _290
REMARK  114  A    between atoms: _295  and  _297
REMARK  115  A    between atoms: _297  and  _298
REMARK  116  A    between atoms: _297  and  _300
REMARK  117  A    between atoms: _300  and  _301
REMARK  118  A    between atoms: _306  and  _308
REMARK  119  A    between atoms: _308  and  _309
REMARK  120  A    between atoms: _308  and  _311
REMARK  121  A    between atoms: _311  and  _312
REMARK  122  A    between atoms: _312  and  _313
REMARK  123  A    between atoms: _318  and  _320
REMARK  124  A    between atoms: _320  and  _321
REMARK  125  A    between atoms: _320  and  _323
REMARK  126  A    between atoms: _323  and  _324
REMARK  127  A    between atoms: _329  and  _330
REMARK  128  A    between atoms: _332  and  _334
REMARK  129  A    between atoms: _334  and  _335
REMARK  130  A    between atoms: _334  and  _337
REMARK  131  A    between atoms: _337  and  _338
REMARK  132  A    between atoms: _341  and  _343
REMARK  133  A    between atoms: _343  and  _344
REMARK  134  A    between atoms: _347  and  _349
REMARK  135  A    between atoms: _349  and  _350
REMARK  136  A    between atoms: _349  and  _352
REMARK  137  A    between atoms: _352  and  _353
REMARK  138  A    between atoms: _355  and  _357
REMARK  139  A    between atoms: _357  and  _358
REMARK  140  A    between atoms: _357  and  _360
REMARK  141  A    between atoms: _360  and  _361
REMARK  142  A    between atoms: _361  and  _362
REMARK  143  A    between atoms: _364  and  _366
REMARK  144  A    between atoms: _366  and  _367
REMARK  145  A    between atoms: _366  and  _369
REMARK  146  A    between atoms: _369  and  _370
REMARK  147  A    between atoms: _370  and  _371
REMARK  148  A    between atoms: _376  and  _378
REMARK  149  A    between atoms: _378  and  _379
REMARK  150  A    between atoms: _378  and  _381
REMARK  151  A    between atoms: _381  and  _382
REMARK  152  A    between atoms: _384  and  _386
REMARK  153  A    between atoms: _386  and  _387
REMARK  154  A    between atoms: _386  and  _389
REMARK  155  A    between atoms: _389  and  _390
REMARK  156  A    between atoms: _395  and  _396
REMARK  157  A    between atoms: _398  and  _400
REMARK  158  A    between atoms: _400  and  _401
REMARK  159  A    between atoms: _400  and  _403
REMARK  160  A    between atoms: _403  and  _404
REMARK  161  A    between atoms: _406  and  _408
REMARK  162  A    between atoms: _408  and  _409
REMARK  163  A    between atoms: _412  and  _414
REMARK  164  A    between atoms: _414  and  _415
REMARK  165  A    between atoms: _414  and  _417
REMARK  166  A    between atoms: _417  and  _418
REMARK  167  A    between atoms: _428  and  _430
REMARK  168  A    between atoms: _430  and  _431
REMARK  169  A    between atoms: _430  and  _433
REMARK  170  A    between atoms: _433  and  _434
REMARK  171  A    between atoms: _434  and  _435
REMARK  172  A    between atoms: _440  and  _442
REMARK  173  A    between atoms: _442  and  _443
REMARK  174  A    between atoms: _442  and  _445
REMARK  175  A    between atoms: _448  and  _450
REMARK  176  A    between atoms: _450  and  _451
REMARK  177  A    between atoms: _450  and  _453
REMARK  178  A    between atoms: _453  and  _454
REMARK  179  A    between atoms: _457  and  _459
REMARK  180  A    between atoms: _459  and  _460
REMARK  181  A    between atoms: _459  and  _462
REMARK  182  A    between atoms: _462  and  _463
REMARK  183  A    between atoms: _468  and  _469
REMARK  184  A    between atoms: _471  and  _473
REMARK  185  A    between atoms: _473  and  _474
REMARK  186  A    between atoms: _473  and  _476
REMARK  187  A    between atoms: _479  and  _481
REMARK  188  A    between atoms: _481  and  _482
REMARK  189  A    between atoms: _481  and  _484
REMARK  190  A    between atoms: _484  and  _485
REMARK  191  A    between atoms: _491  and  _493
REMARK  192  A    between atoms: _493  and  _494
REMARK  193  A    between atoms: _493  and  _496
REMARK  194  A    between atoms: _496  and  _497
REMARK  195  A    between atoms: _497  and  _498
REMARK  196  A    between atoms: _503  and  _505
REMARK  197  A    between atoms: _505  and  _506
REMARK  198  A    between atoms: _505  and  _508
REMARK  199  A    between atoms: _508  and  _509
REMARK  200  A    between atoms: _511  and  _513
REMARK  201  A    between atoms: _513  and  _514
REMARK  202  A    between atoms: _513  and  _516
REMARK  203  A    between atoms: _516  and  _517
REMARK  204  A    between atoms: _522  and  _524
REMARK  205  A    between atoms: _524  and  _525
REMARK  206  A    between atoms: _524  and  _527
REMARK  207  A    between atoms: _527  and  _528
REMARK  208  A    between atoms: _538  and  _540
REMARK  209  A    between atoms: _540  and  _541
REMARK  210  A    between atoms: _540  and  _543
REMARK  211  A    between atoms: _543  and  _544
REMARK  212  A    between atoms: _547  and  _549
REMARK  213  A    between atoms: _549  and  _550
REMARK  214  A    between atoms: _549  and  _552
REMARK  215  A    between atoms: _552  and  _553
REMARK  216  A    between atoms: _558  and  _559
REMARK  217  A    between atoms: _561  and  _563
REMARK  218  A    between atoms: _563  and  _564
REMARK  219  A    between atoms: _563  and  _566
REMARK  220  A    between atoms: _566  and  _567
REMARK  221  A    between atoms: _570  and  _572
REMARK  222  A    between atoms: _572  and  _573
REMARK  223  A    between atoms: _572  and  _575
REMARK  224  A    between atoms: _575  and  _576
REMARK  225  A    between atoms: _576  and  _577
REMARK  226  A    between atoms: _580  and  _582
REMARK  227  A    between atoms: _582  and  _583
REMARK  228  A    between atoms: _582  and  _585
REMARK  229  A    between atoms: _585  and  _586
REMARK  230  A    between atoms: _591  and  _593
REMARK  231  A    between atoms: _593  and  _594
REMARK  232  A    between atoms: _596  and  _598
REMARK  233  A    between atoms: _598  and  _599
REMARK  234  A    between atoms: _598  and  _601
REMARK  235  A    between atoms: _601  and  _602
REMARK  236  A    between atoms: _602  and  _603
REMARK  237  A    between atoms: _605  and  _607
REMARK  238  A    between atoms: _607  and  _608
REMARK  239  A    between atoms: _607  and  _610
REMARK  240  A    between atoms: _610  and  _611
REMARK  241  A    between atoms: _614  and  _616
REMARK  242  A    between atoms: _616  and  _617
REMARK  243  A    between atoms: _616  and  _619
REMARK  244  A    between atoms: _619  and  _620
REMARK  245  A    between atoms: _630  and  _632
REMARK  246  A    between atoms: _632  and  _633
REMARK  247  A    between atoms: _632  and  _635
REMARK  248  A    between atoms: _635  and  _636
REMARK  249  A    between atoms: _638  and  _640
REMARK  250  A    between atoms: _640  and  _641
REMARK  251  A    between atoms: _640  and  _643
REMARK  252  A    between atoms: _643  and  _644
REMARK  253  A    between atoms: _649  and  _651
REMARK  254  A    between atoms: _651  and  _652
REMARK  255  A    between atoms: _651  and  _654
REMARK  256  A    between atoms: _654  and  _655
REMARK  257  A    between atoms: _661  and  _663
REMARK  258  A    between atoms: _663  and  _664
REMARK  259  A    between atoms: _663  and  _666
REMARK  260  A    between atoms: _666  and  _667
REMARK  261  A    between atoms: _667  and  _668
REMARK  262  A    between atoms: _671  and  _673
REMARK  263  A    between atoms: _673  and  _674
REMARK  264  A    between atoms: _673  and  _676
REMARK  265  A    between atoms: _676  and  _677
REMARK  266  A    between atoms: _687  and  _689
REMARK  267  A    between atoms: _689  and  _690
REMARK  268  A    between atoms: _689  and  _692
REMARK  269  A    between atoms: _692  and  _693
REMARK  270  A    between atoms: _696  and  _698
REMARK  271  A    between atoms: _698  and  _699
REMARK  272  A    between atoms: _698  and  _701
REMARK  273  A    between atoms: _701  and  _702
REMARK  274  A    between atoms: _704  and  _706
REMARK  275  A    between atoms: _706  and  _707
REMARK  276  A    between atoms: _706  and  _709
REMARK  277  A    between atoms: _709  and  _710
REMARK  278  A    between atoms: _712  and  _714
REMARK  279  A    between atoms: _714  and  _715
REMARK  280  A    between atoms: _714  and  _717
REMARK  281  A    between atoms: _717  and  _718
REMARK                            x       y       z     vdW  Elec       q    Type
REMARK                         _______ _______ _______ _____ _____    ______ ____
ROOT
ATOM      1  O   HOH     1      -1.135  -2.989  46.901  0.00  0.00    +0.000 OA
ENDROOT
TORSDOF 0
REMARK  Name = ../refined-set-2016/3f5k/3f5k_pocket.pdb
REMARK  281 active torsions:
REMARK  status: ('A' for Active; 'I' for Inactive)
REMARK    1  A    between atoms: _1  and  _3
REMARK    2  A    between atoms: _3  and  _4
REMARK    3  A    between atoms: _3  and  _6
REMARK    4  A    between atoms: _9  and  _11
REMARK    5  A    between atoms: _11  and  _12
REMARK    6  A    between atoms: _11  and  _14
REMARK    7  A    between atoms: _14  and  _15
REMARK    8  A    between atoms: _18  and  _20
REMARK    9  A    between atoms: _20  and  _21
REMARK   10  A    between atoms: _20  and  _23
REMARK   11  A    between atoms: _23  and  _24
REMARK   12  A    between atoms: _26  and  _28
REMARK   13  A    between atoms: _28  and  _29
REMARK   14  A    between atoms: _32  and  _34
REMARK   15  A    between atoms: _34  and  _35
REMARK   16  A    between atoms: _34  and  _37
REMARK   17  A    between atoms: _37  and  _38
REMARK   18  A    between atoms: _38  and  _39
REMARK   19  A    between atoms: _44  and  _46
REMARK   20  A    between atoms: _46  and  _47
REMARK   21  A    between atoms: _46  and  _49
REMARK   22  A    between atoms: _49  and  _50
REMARK   23  A    between atoms: _50  and  _51
REMARK   24  A    between atoms: _51  and  _52
REMARK   25  A    between atoms: _61  and  _63
REMARK   26  A    between atoms: _63  and  _64
REMARK   27  A    between atoms: _63  and  _66
REMARK   28  A    between atoms: _66  and  _67
REMARK   29  A    between atoms: _72  and  _74
REMARK   30  A    between atoms: _74  and  _75
REMARK   31  A    between atoms: _74  and  _77
REMARK   32  A    between atoms: _77  and  _78
REMARK   33  A    between atoms: _83  and  _85
REMARK   34  A    between atoms: _85  and  _86
REMARK   35  A    between atoms: _85  and  _88
REMARK   36  A    between atoms: _88  and  _89
REMARK   37  A    between atoms: _94  and  _95
REMARK   38  A    between atoms: _97  and  _99
REMARK   39  A    between atoms: _99  and  _100
REMARK   40  A    between atoms: _99  and  _102
REMARK   41  A    between atoms: _102  and  _103
REMARK   42  A    between atoms: _108  and  _110
REMARK   43  A    between atoms: _110  and  _111
REMARK   44  A    between atoms: _110  and  _113
REMARK   45  A    between atoms: _113  and  _114
REMARK   46  A    between atoms: _114  and  _115
REMARK   47  A    between atoms: _120  and  _122
REMARK   48  A    between atoms: _122  and  _123
REMARK   49  A    between atoms: _122  and  _125
REMARK   50  A    between atoms: _125  and  _126
REMARK   51  A    between atoms: _126  and  _127
REMARK   52  A    between atoms: _127  and  _128
REMARK   53  A    between atoms: _137  and  _139
REMARK   54  A    between atoms: _139  and  _140
REMARK   55  A    between atoms: _139  and  _142
REMARK   56  A    between atoms: _142  and  _143
REMARK   57  A    between atoms: _146  and  _148
REMARK   58  A    between atoms: _148  and  _149
REMARK   59  A    between atoms: _148  and  _151
REMARK   60  A    between atoms: _151  and  _152
REMARK   61  A    between atoms: _155  and  _157
REMARK   62  A    between atoms: _157  and  _158
REMARK   63  A    between atoms: _157  and  _160
REMARK   64  A    between atoms: _160  and  _161
REMARK   65  A    between atoms: _164  and  _166
REMARK   66  A    between atoms: _166  and  _167
REMARK   67  A    between atoms: _166  and  _169
REMARK   68  A    between atoms: _169  and  _170
REMARK   69  A    between atoms: _173  and  _175
REMARK   70  A    between atoms: _175  and  _176
REMARK   71  A    between atoms: _175  and  _178
REMARK   72  A    between atoms: _178  and  _179
REMARK   73  A    between atoms: _179  and  _180
REMARK   74  A    between atoms: _185  and  _187
REMARK   75  A    between atoms: _187  and  _188
REMARK   76  A    between atoms: _187  and  _190
REMARK   77  A    between atoms: _190  and  _191
REMARK   78  A    between atoms: _194  and  _196
REMARK   79  A    between atoms: _196  and  _197
REMARK   80  A    between atoms: _196  and  _199
REMARK   81  A    between atoms: _199  and  _200
REMARK   82  A    between atoms: _205  and  _207
REMARK   83  A    between atoms: _207  and  _208
REMARK   84  A    between atoms: _207  and  _210
REMARK   85  A    between atoms: _213  and  _215
REMARK   86  A    between atoms: _215  and  _216
REMARK   87  A    between atoms: _215  and  _218
REMARK   88  A    between atoms: _218  and  _219
REMARK   89  A    between atoms: _222  and  _224
REMARK   90  A    between atoms: _224  and  _225
REMARK   91  A    between atoms: _224  and  _227
REMARK   92  A    between atoms: _227  and  _228
REMARK   93  A    between atoms: _231  and  _233
REMARK   94  A    between atoms: _233  and  _234
REMARK   95  A    between atoms: _233  and  _236
REMARK   96  A    between atoms: _236  and  _237
REMARK   97  A    between atoms: _243  and  _245
REMARK   98  A    between atoms: _245  and  _246
REMARK   99  A    between atoms: _245  and  _248
REMARK  100  A    between atoms: _248  and  _249
REMARK  101  A    between atoms: _254  and  _256
REMARK  102  A    between atoms: _256  and  _257
REMARK  103  A    between atoms: _256  and  _259
REMARK  104  A    between atoms: _259  and  _260
REMARK  105  A    between atoms: _270  and  _272
REMARK  106  A    between atoms: _272  and  _273
REMARK  107  A    between atoms: _272  and  _275
REMARK  108  A    between atoms: _275  and  _276
REMARK  109  A    between atoms: _281  and  _282
REMARK  110  A    between atoms: _284  and  _286
REMARK  111  A    between atoms: _286  and  _287
REMARK  112  A    between atoms: _286  and  _289
REMARK  113  A    between atoms: _289  and  _290
REMARK  114  A    between atoms: _295  and  _297
REMARK  115  A    between atoms: _297  and  _298
REMARK  116  A    between atoms: _297  and  _300
REMARK  117  A    between atoms: _300  and  _301
REMARK  118  A    between atoms: _306  and  _308
REMARK  119  A    between atoms: _308  and  _309
REMARK  120  A    between atoms: _308  and  _311
REMARK  121  A    between atoms: _311  and  _312
REMARK  122  A    between atoms: _312  and  _313
REMARK  123  A    between atoms: _318  and  _320
REMARK  124  A    between atoms: _320  and  _321
REMARK  125  A    between atoms: _320  and  _323
REMARK  126  A    between atoms: _323  and  _324
REMARK  127  A    between atoms: _329  and  _330
REMARK  128  A    between atoms: _332  and  _334
REMARK  129  A    between atoms: _334  and  _335
REMARK  130  A    between atoms: _334  and  _337
REMARK  131  A    between atoms: _337  and  _338
REMARK  132  A    between atoms: _341  and  _343
REMARK  133  A    between atoms: _343  and  _344
REMARK  134  A    between atoms: _347  and  _349
REMARK  135  A    between atoms: _349  and  _350
REMARK  136  A    between atoms: _349  and  _352
REMARK  137  A    between atoms: _352  and  _353
REMARK  138  A    between atoms: _355  and  _357
REMARK  139  A    between atoms: _357  and  _358
REMARK  140  A    between atoms: _357  and  _360
REMARK  141  A    between atoms: _360  and  _361
REMARK  142  A    between atoms: _361  and  _362
REMARK  143  A    between atoms: _364  and  _366
REMARK  144  A    between atoms: _366  and  _367
REMARK  145  A    between atoms: _366  and  _369
REMARK  146  A    between atoms: _369  and  _370
REMARK  147  A    between atoms: _370  and  _371
REMARK  148  A    between atoms: _376  and  _378
REMARK  149  A    between atoms: _378  and  _379
REMARK  150  A    between atoms: _378  and  _381
REMARK  151  A    between atoms: _381  and  _382
REMARK  152  A    between atoms: _384  and  _386
REMARK  153  A    between atoms: _386  and  _387
REMARK  154  A    between atoms: _386  and  _389
REMARK  155  A    between atoms: _389  and  _390
REMARK  156  A    between atoms: _395  and  _396
REMARK  157  A    between atoms: _398  and  _400
REMARK  158  A    between atoms: _400  and  _401
REMARK  159  A    between atoms: _400  and  _403
REMARK  160  A    between atoms: _403  and  _404
REMARK  161  A    between atoms: _406  and  _408
REMARK  162  A    between atoms: _408  and  _409
REMARK  163  A    between atoms: _412  and  _414
REMARK  164  A    between atoms: _414  and  _415
REMARK  165  A    between atoms: _414  and  _417
REMARK  166  A    between atoms: _417  and  _418
REMARK  167  A    between atoms: _428  and  _430
REMARK  168  A    between atoms: _430  and  _431
REMARK  169  A    between atoms: _430  and  _433
REMARK  170  A    between atoms: _433  and  _434
REMARK  171  A    between atoms: _434  and  _435
REMARK  172  A    between atoms: _440  and  _442
REMARK  173  A    between atoms: _442  and  _443
REMARK  174  A    between atoms: _442  and  _445
REMARK  175  A    between atoms: _448  and  _450
REMARK  176  A    between atoms: _450  and  _451
REMARK  177  A    between atoms: _450  and  _453
REMARK  178  A    between atoms: _453  and  _454
REMARK  179  A    between atoms: _457  and  _459
REMARK  180  A    between atoms: _459  and  _460
REMARK  181  A    between atoms: _459  and  _462
REMARK  182  A    between atoms: _462  and  _463
REMARK  183  A    between atoms: _468  and  _469
REMARK  184  A    between atoms: _471  and  _473
REMARK  185  A    between atoms: _473  and  _474
REMARK  186  A    between atoms: _473  and  _476
REMARK  187  A    between atoms: _479  and  _481
REMARK  188  A    between atoms: _481  and  _482
REMARK  189  A    between atoms: _481  and  _484
REMARK  190  A    between atoms: _484  and  _485
REMARK  191  A    between atoms: _491  and  _493
REMARK  192  A    between atoms: _493  and  _494
REMARK  193  A    between atoms: _493  and  _496
REMARK  194  A    between atoms: _496  and  _497
REMARK  195  A    between atoms: _497  and  _498
REMARK  196  A    between atoms: _503  and  _505
REMARK  197  A    between atoms: _505  and  _506
REMARK  198  A    between atoms: _505  and  _508
REMARK  199  A    between atoms: _508  and  _509
REMARK  200  A    between atoms: _511  and  _513
REMARK  201  A    between atoms: _513  and  _514
REMARK  202  A    between atoms: _513  and  _516
REMARK  203  A    between atoms: _516  and  _517
REMARK  204  A    between atoms: _522  and  _524
REMARK  205  A    between atoms: _524  and  _525
REMARK  206  A    between atoms: _524  and  _527
REMARK  207  A    between atoms: _527  and  _528
REMARK  208  A    between atoms: _538  and  _540
REMARK  209  A    between atoms: _540  and  _541
REMARK  210  A    between atoms: _540  and  _543
REMARK  211  A    between atoms: _543  and  _544
REMARK  212  A    between atoms: _547  and  _549
REMARK  213  A    between atoms: _549  and  _550
REMARK  214  A    between atoms: _549  and  _552
REMARK  215  A    between atoms: _552  and  _553
REMARK  216  A    between atoms: _558  and  _559
REMARK  217  A    between atoms: _561  and  _563
REMARK  218  A    between atoms: _563  and  _564
REMARK  219  A    between atoms: _563  and  _566
REMARK  220  A    between atoms: _566  and  _567
REMARK  221  A    between atoms: _570  and  _572
REMARK  222  A    between atoms: _572  and  _573
REMARK  223  A    between atoms: _572  and  _575
REMARK  224  A    between atoms: _575  and  _576
REMARK  225  A    between atoms: _576  and  _577
REMARK  226  A    between atoms: _580  and  _582
REMARK  227  A    between atoms: _582  and  _583
REMARK  228  A    between atoms: _582  and  _585
REMARK  229  A    between atoms: _585  and  _586
REMARK  230  A    between atoms: _591  and  _593
REMARK  231  A    between atoms: _593  and  _594
REMARK  232  A    between atoms: _596  and  _598
REMARK  233  A    between atoms: _598  and  _599
REMARK  234  A    between atoms: _598  and  _601
REMARK  235  A    between atoms: _601  and  _602
REMARK  236  A    between atoms: _602  and  _603
REMARK  237  A    between atoms: _605  and  _607
REMARK  238  A    between atoms: _607  and  _608
REMARK  239  A    between atoms: _607  and  _610
REMARK  240  A    between atoms: _610  and  _611
REMARK  241  A    between atoms: _614  and  _616
REMARK  242  A    between atoms: _616  and  _617
REMARK  243  A    between atoms: _616  and  _619
REMARK  244  A    between atoms: _619  and  _620
REMARK  245  A    between atoms: _630  and  _632
REMARK  246  A    between atoms: _632  and  _633
REMARK  247  A    between atoms: _632  and  _635
REMARK  248  A    between atoms: _635  and  _636
REMARK  249  A    between atoms: _638  and  _640
REMARK  250  A    between atoms: _640  and  _641
REMARK  251  A    between atoms: _640  and  _643
REMARK  252  A    between atoms: _643  and  _644
REMARK  253  A    between atoms: _649  and  _651
REMARK  254  A    between atoms: _651  and  _652
REMARK  255  A    between atoms: _651  and  _654
REMARK  256  A    between atoms: _654  and  _655
REMARK  257  A    between atoms: _661  and  _663
REMARK  258  A    between atoms: _663  and  _664
REMARK  259  A    between atoms: _663  and  _666
REMARK  260  A    between atoms: _666  and  _667
REMARK  261  A    between atoms: _667  and  _668
REMARK  262  A    between atoms: _671  and  _673
REMARK  263  A    between atoms: _673  and  _674
REMARK  264  A    between atoms: _673  and  _676
REMARK  265  A    between atoms: _676  and  _677
REMARK  266  A    between atoms: _687  and  _689
REMARK  267  A    between atoms: _689  and  _690
REMARK  268  A    between atoms: _689  and  _692
REMARK  269  A    between atoms: _692  and  _693
REMARK  270  A    between atoms: _696  and  _698
REMARK  271  A    between atoms: _698  and  _699
REMARK  272  A    between atoms: _698  and  _701
REMARK  273  A    between atoms: _701  and  _702
REMARK  274  A    between atoms: _704  and  _706
REMARK  275  A    between atoms: _706  and  _707
REMARK  276  A    between atoms: _706  and  _709
REMARK  277  A    between atoms: _709  and  _710
REMARK  278  A    between atoms: _712  and  _714
REMARK  279  A    between atoms: _714  and  _715
REMARK  280  A    between atoms: _714  and  _717
REMARK  281  A    between atoms: _717  and  _718
REMARK                            x       y       z     vdW  Elec       q    Type
REMARK                         _______ _______ _______ _____ _____    ______ ____
ROOT
ATOM      1  O   HOH     1       3.637  -2.496  49.018  0.00  0.00    +0.000 OA
ENDROOT
TORSDOF 0
REMARK  Name = ../refined-set-2016/3f5k/3f5k_pocket.pdb
REMARK  281 active torsions:
REMARK  status: ('A' for Active; 'I' for Inactive)
REMARK    1  A    between atoms: _1  and  _3
REMARK    2  A    between atoms: _3  and  _4
REMARK    3  A    between atoms: _3  and  _6
REMARK    4  A    between atoms: _9  and  _11
REMARK    5  A    between atoms: _11  and  _12
REMARK    6  A    between atoms: _11  and  _14
REMARK    7  A    between atoms: _14  and  _15
REMARK    8  A    between atoms: _18  and  _20
REMARK    9  A    between atoms: _20  and  _21
REMARK   10  A    between atoms: _20  and  _23
REMARK   11  A    between atoms: _23  and  _24
REMARK   12  A    between atoms: _26  and  _28
REMARK   13  A    between atoms: _28  and  _29
REMARK   14  A    between atoms: _32  and  _34
REMARK   15  A    between atoms: _34  and  _35
REMARK   16  A    between atoms: _34  and  _37
REMARK   17  A    between atoms: _37  and  _38
REMARK   18  A    between atoms: _38  and  _39
REMARK   19  A    between atoms: _44  and  _46
REMARK   20  A    between atoms: _46  and  _47
REMARK   21  A    between atoms: _46  and  _49
REMARK   22  A    between atoms: _49  and  _50
REMARK   23  A    between atoms: _50  and  _51
REMARK   24  A    between atoms: _51  and  _52
REMARK   25  A    between atoms: _61  and  _63
REMARK   26  A    between atoms: _63  and  _64
REMARK   27  A    between atoms: _63  and  _66
REMARK   28  A    between atoms: _66  and  _67
REMARK   29  A    between atoms: _72  and  _74
REMARK   30  A    between atoms: _74  and  _75
REMARK   31  A    between atoms: _74  and  _77
REMARK   32  A    between atoms: _77  and  _78
REMARK   33  A    between atoms: _83  and  _85
REMARK   34  A    between atoms: _85  and  _86
REMARK   35  A    between atoms: _85  and  _88
REMARK   36  A    between atoms: _88  and  _89
REMARK   37  A    between atoms: _94  and  _95
REMARK   38  A    between atoms: _97  and  _99
REMARK   39  A    between atoms: _99  and  _100
REMARK   40  A    between atoms: _99  and  _102
REMARK   41  A    between atoms: _102  and  _103
REMARK   42  A    between atoms: _108  and  _110
REMARK   43  A    between atoms: _110  and  _111
REMARK   44  A    between atoms: _110  and  _113
REMARK   45  A    between atoms: _113  and  _114
REMARK   46  A    between atoms: _114  and  _115
REMARK   47  A    between atoms: _120  and  _122
REMARK   48  A    between atoms: _122  and  _123
REMARK   49  A    between atoms: _122  and  _125
REMARK   50  A    between atoms: _125  and  _126
REMARK   51  A    between atoms: _126  and  _127
REMARK   52  A    between atoms: _127  and  _128
REMARK   53  A    between atoms: _137  and  _139
REMARK   54  A    between atoms: _139  and  _140
REMARK   55  A    between atoms: _139  and  _142
REMARK   56  A    between atoms: _142  and  _143
REMARK   57  A    between atoms: _146  and  _148
REMARK   58  A    between atoms: _148  and  _149
REMARK   59  A    between atoms: _148  and  _151
REMARK   60  A    between atoms: _151  and  _152
REMARK   61  A    between atoms: _155  and  _157
REMARK   62  A    between atoms: _157  and  _158
REMARK   63  A    between atoms: _157  and  _160
REMARK   64  A    between atoms: _160  and  _161
REMARK   65  A    between atoms: _164  and  _166
REMARK   66  A    between atoms: _166  and  _167
REMARK   67  A    between atoms: _166  and  _169
REMARK   68  A    between atoms: _169  and  _170
REMARK   69  A    between atoms: _173  and  _175
REMARK   70  A    between atoms: _175  and  _176
REMARK   71  A    between atoms: _175  and  _178
REMARK   72  A    between atoms: _178  and  _179
REMARK   73  A    between atoms: _179  and  _180
REMARK   74  A    between atoms: _185  and  _187
REMARK   75  A    between atoms: _187  and  _188
REMARK   76  A    between atoms: _187  and  _190
REMARK   77  A    between atoms: _190  and  _191
REMARK   78  A    between atoms: _194  and  _196
REMARK   79  A    between atoms: _196  and  _197
REMARK   80  A    between atoms: _196  and  _199
REMARK   81  A    between atoms: _199  and  _200
REMARK   82  A    between atoms: _205  and  _207
REMARK   83  A    between atoms: _207  and  _208
REMARK   84  A    between atoms: _207  and  _210
REMARK   85  A    between atoms: _213  and  _215
REMARK   86  A    between atoms: _215  and  _216
REMARK   87  A    between atoms: _215  and  _218
REMARK   88  A    between atoms: _218  and  _219
REMARK   89  A    between atoms: _222  and  _224
REMARK   90  A    between atoms: _224  and  _225
REMARK   91  A    between atoms: _224  and  _227
REMARK   92  A    between atoms: _227  and  _228
REMARK   93  A    between atoms: _231  and  _233
REMARK   94  A    between atoms: _233  and  _234
REMARK   95  A    between atoms: _233  and  _236
REMARK   96  A    between atoms: _236  and  _237
REMARK   97  A    between atoms: _243  and  _245
REMARK   98  A    between atoms: _245  and  _246
REMARK   99  A    between atoms: _245  and  _248
REMARK  100  A    between atoms: _248  and  _249
REMARK  101  A    between atoms: _254  and  _256
REMARK  102  A    between atoms: _256  and  _257
REMARK  103  A    between atoms: _256  and  _259
REMARK  104  A    between atoms: _259  and  _260
REMARK  105  A    between atoms: _270  and  _272
REMARK  106  A    between atoms: _272  and  _273
REMARK  107  A    between atoms: _272  and  _275
REMARK  108  A    between atoms: _275  and  _276
REMARK  109  A    between atoms: _281  and  _282
REMARK  110  A    between atoms: _284  and  _286
REMARK  111  A    between atoms: _286  and  _287
REMARK  112  A    between atoms: _286  and  _289
REMARK  113  A    between atoms: _289  and  _290
REMARK  114  A    between atoms: _295  and  _297
REMARK  115  A    between atoms: _297  and  _298
REMARK  116  A    between atoms: _297  and  _300
REMARK  117  A    between atoms: _300  and  _301
REMARK  118  A    between atoms: _306  and  _308
REMARK  119  A    between atoms: _308  and  _309
REMARK  120  A    between atoms: _308  and  _311
REMARK  121  A    between atoms: _311  and  _312
REMARK  122  A    between atoms: _312  and  _313
REMARK  123  A    between atoms: _318  and  _320
REMARK  124  A    between atoms: _320  and  _321
REMARK  125  A    between atoms: _320  and  _323
REMARK  126  A    between atoms: _323  and  _324
REMARK  127  A    between atoms: _329  and  _330
REMARK  128  A    between atoms: _332  and  _334
REMARK  129  A    between atoms: _334  and  _335
REMARK  130  A    between atoms: _334  and  _337
REMARK  131  A    between atoms: _337  and  _338
REMARK  132  A    between atoms: _341  and  _343
REMARK  133  A    between atoms: _343  and  _344
REMARK  134  A    between atoms: _347  and  _349
REMARK  135  A    between atoms: _349  and  _350
REMARK  136  A    between atoms: _349  and  _352
REMARK  137  A    between atoms: _352  and  _353
REMARK  138  A    between atoms: _355  and  _357
REMARK  139  A    between atoms: _357  and  _358
REMARK  140  A    between atoms: _357  and  _360
REMARK  141  A    between atoms: _360  and  _361
REMARK  142  A    between atoms: _361  and  _362
REMARK  143  A    between atoms: _364  and  _366
REMARK  144  A    between atoms: _366  and  _367
REMARK  145  A    between atoms: _366  and  _369
REMARK  146  A    between atoms: _369  and  _370
REMARK  147  A    between atoms: _370  and  _371
REMARK  148  A    between atoms: _376  and  _378
REMARK  149  A    between atoms: _378  and  _379
REMARK  150  A    between atoms: _378  and  _381
REMARK  151  A    between atoms: _381  and  _382
REMARK  152  A    between atoms: _384  and  _386
REMARK  153  A    between atoms: _386  and  _387
REMARK  154  A    between atoms: _386  and  _389
REMARK  155  A    between atoms: _389  and  _390
REMARK  156  A    between atoms: _395  and  _396
REMARK  157  A    between atoms: _398  and  _400
REMARK  158  A    between atoms: _400  and  _401
REMARK  159  A    between atoms: _400  and  _403
REMARK  160  A    between atoms: _403  and  _404
REMARK  161  A    between atoms: _406  and  _408
REMARK  162  A    between atoms: _408  and  _409
REMARK  163  A    between atoms: _412  and  _414
REMARK  164  A    between atoms: _414  and  _415
REMARK  165  A    between atoms: _414  and  _417
REMARK  166  A    between atoms: _417  and  _418
REMARK  167  A    between atoms: _428  and  _430
REMARK  168  A    between atoms: _430  and  _431
REMARK  169  A    between atoms: _430  and  _433
REMARK  170  A    between atoms: _433  and  _434
REMARK  171  A    between atoms: _434  and  _435
REMARK  172  A    between atoms: _440  and  _442
REMARK  173  A    between atoms: _442  and  _443
REMARK  174  A    between atoms: _442  and  _445
REMARK  175  A    between atoms: _448  and  _450
REMARK  176  A    between atoms: _450  and  _451
REMARK  177  A    between atoms: _450  and  _453
REMARK  178  A    between atoms: _453  and  _454
REMARK  179  A    between atoms: _457  and  _459
REMARK  180  A    between atoms: _459  and  _460
REMARK  181  A    between atoms: _459  and  _462
REMARK  182  A    between atoms: _462  and  _463
REMARK  183  A    between atoms: _468  and  _469
REMARK  184  A    between atoms: _471  and  _473
REMARK  185  A    between atoms: _473  and  _474
REMARK  186  A    between atoms: _473  and  _476
REMARK  187  A    between atoms: _479  and  _481
REMARK  188  A    between atoms: _481  and  _482
REMARK  189  A    between atoms: _481  and  _484
REMARK  190  A    between atoms: _484  and  _485
REMARK  191  A    between atoms: _491  and  _493
REMARK  192  A    between atoms: _493  and  _494
REMARK  193  A    between atoms: _493  and  _496
REMARK  194  A    between atoms: _496  and  _497
REMARK  195  A    between atoms: _497  and  _498
REMARK  196  A    between atoms: _503  and  _505
REMARK  197  A    between atoms: _505  and  _506
REMARK  198  A    between atoms: _505  and  _508
REMARK  199  A    between atoms: _508  and  _509
REMARK  200  A    between atoms: _511  and  _513
REMARK  201  A    between atoms: _513  and  _514
REMARK  202  A    between atoms: _513  and  _516
REMARK  203  A    between atoms: _516  and  _517
REMARK  204  A    between atoms: _522  and  _524
REMARK  205  A    between atoms: _524  and  _525
REMARK  206  A    between atoms: _524  and  _527
REMARK  207  A    between atoms: _527  and  _528
REMARK  208  A    between atoms: _538  and  _540
REMARK  209  A    between atoms: _540  and  _541
REMARK  210  A    between atoms: _540  and  _543
REMARK  211  A    between atoms: _543  and  _544
REMARK  212  A    between atoms: _547  and  _549
REMARK  213  A    between atoms: _549  and  _550
REMARK  214  A    between atoms: _549  and  _552
REMARK  215  A    between atoms: _552  and  _553
REMARK  216  A    between atoms: _558  and  _559
REMARK  217  A    between atoms: _561  and  _563
REMARK  218  A    between atoms: _563  and  _564
REMARK  219  A    between atoms: _563  and  _566
REMARK  220  A    between atoms: _566  and  _567
REMARK  221  A    between atoms: _570  and  _572
REMARK  222  A    between atoms: _572  and  _573
REMARK  223  A    between atoms: _572  and  _575
REMARK  224  A    between atoms: _575  and  _576
REMARK  225  A    between atoms: _576  and  _577
REMARK  226  A    between atoms: _580  and  _582
REMARK  227  A    between atoms: _582  and  _583
REMARK  228  A    between atoms: _582  and  _585
REMARK  229  A    between atoms: _585  and  _586
REMARK  230  A    between atoms: _591  and  _593
REMARK  231  A    between atoms: _593  and  _594
REMARK  232  A    between atoms: _596  and  _598
REMARK  233  A    between atoms: _598  and  _599
REMARK  234  A    between atoms: _598  and  _601
REMARK  235  A    between atoms: _601  and  _602
REMARK  236  A    between atoms: _602  and  _603
REMARK  237  A    between atoms: _605  and  _607
REMARK  238  A    between atoms: _607  and  _608
REMARK  239  A    between atoms: _607  and  _610
REMARK  240  A    between atoms: _610  and  _611
REMARK  241  A    between atoms: _614  and  _616
REMARK  242  A    between atoms: _616  and  _617
REMARK  243  A    between atoms: _616  and  _619
REMARK  244  A    between atoms: _619  and  _620
REMARK  245  A    between atoms: _630  and  _632
REMARK  246  A    between atoms: _632  and  _633
REMARK  247  A    between atoms: _632  and  _635
REMARK  248  A    between atoms: _635  and  _636
REMARK  249  A    between atoms: _638  and  _640
REMARK  250  A    between atoms: _640  and  _641
REMARK  251  A    between atoms: _640  and  _643
REMARK  252  A    between atoms: _643  and  _644
REMARK  253  A    between atoms: _649  and  _651
REMARK  254  A    between atoms: _651  and  _652
REMARK  255  A    between atoms: _651  and  _654
REMARK  256  A    between atoms: _654  and  _655
REMARK  257  A    between atoms: _661  and  _663
REMARK  258  A    between atoms: _663  and  _664
REMARK  259  A    between atoms: _663  and  _666
REMARK  260  A    between atoms: _666  and  _667
REMARK  261  A    between atoms: _667  and  _668
REMARK  262  A    between atoms: _671  and  _673
REMARK  263  A    between atoms: _673  and  _674
REMARK  264  A    between atoms: _673  and  _676
REMARK  265  A    between atoms: _676  and  _677
REMARK  266  A    between atoms: _687  and  _689
REMARK  267  A    between atoms: _689  and  _690
REMARK  268  A    between atoms: _689  and  _692
REMARK  269  A    between atoms: _692  and  _693
REMARK  270  A    between atoms: _696  and  _698
REMARK  271  A    between atoms: _698  and  _699
REMARK  272  A    between atoms: _698  and  _701
REMARK  273  A    between atoms: _701  and  _702
REMARK  274  A    between atoms: _704  and  _706
REMARK  275  A    between atoms: _706  and  _707
REMARK  276  A    between atoms: _706  and  _709
REMARK  277  A    between atoms: _709  and  _710
REMARK  278  A    between atoms: _712  and  _714
REMARK  279  A    between atoms: _714  and  _715
REMARK  280  A    between atoms: _714  and  _717
REMARK  281  A    between atoms: _717  and  _718
REMARK                            x       y       z     vdW  Elec       q    Type
REMARK                         _______ _______ _______ _____ _____    ______ ____
ROOT
ATOM      1  O   HOH     1       5.812   0.268  44.846  0.00  0.00    +0.000 OA
ENDROOT
TORSDOF 0
REMARK  Name = ../refined-set-2016/3f5k/3f5k_pocket.pdb
REMARK  281 active torsions:
REMARK  status: ('A' for Active; 'I' for Inactive)
REMARK    1  A    between atoms: _1  and  _3
REMARK    2  A    between atoms: _3  and  _4
REMARK    3  A    between atoms: _3  and  _6
REMARK    4  A    between atoms: _9  and  _11
REMARK    5  A    between atoms: _11  and  _12
REMARK    6  A    between atoms: _11  and  _14
REMARK    7  A    between atoms: _14  and  _15
REMARK    8  A    between atoms: _18  and  _20
REMARK    9  A    between atoms: _20  and  _21
REMARK   10  A    between atoms: _20  and  _23
REMARK   11  A    between atoms: _23  and  _24
REMARK   12  A    between atoms: _26  and  _28
REMARK   13  A    between atoms: _28  and  _29
REMARK   14  A    between atoms: _32  and  _34
REMARK   15  A    between atoms: _34  and  _35
REMARK   16  A    between atoms: _34  and  _37
REMARK   17  A    between atoms: _37  and  _38
REMARK   18  A    between atoms: _38  and  _39
REMARK   19  A    between atoms: _44  and  _46
REMARK   20  A    between atoms: _46  and  _47
REMARK   21  A    between atoms: _46  and  _49
REMARK   22  A    between atoms: _49  and  _50
REMARK   23  A    between atoms: _50  and  _51
REMARK   24  A    between atoms: _51  and  _52
REMARK   25  A    between atoms: _61  and  _63
REMARK   26  A    between atoms: _63  and  _64
REMARK   27  A    between atoms: _63  and  _66
REMARK   28  A    between atoms: _66  and  _67
REMARK   29  A    between atoms: _72  and  _74
REMARK   30  A    between atoms: _74  and  _75
REMARK   31  A    between atoms: _74  and  _77
REMARK   32  A    between atoms: _77  and  _78
REMARK   33  A    between atoms: _83  and  _85
REMARK   34  A    between atoms: _85  and  _86
REMARK   35  A    between atoms: _85  and  _88
REMARK   36  A    between atoms: _88  and  _89
REMARK   37  A    between atoms: _94  and  _95
REMARK   38  A    between atoms: _97  and  _99
REMARK   39  A    between atoms: _99  and  _100
REMARK   40  A    between atoms: _99  and  _102
REMARK   41  A    between atoms: _102  and  _103
REMARK   42  A    between atoms: _108  and  _110
REMARK   43  A    between atoms: _110  and  _111
REMARK   44  A    between atoms: _110  and  _113
REMARK   45  A    between atoms: _113  and  _114
REMARK   46  A    between atoms: _114  and  _115
REMARK   47  A    between atoms: _120  and  _122
REMARK   48  A    between atoms: _122  and  _123
REMARK   49  A    between atoms: _122  and  _125
REMARK   50  A    between atoms: _125  and  _126
REMARK   51  A    between atoms: _126  and  _127
REMARK   52  A    between atoms: _127  and  _128
REMARK   53  A    between atoms: _137  and  _139
REMARK   54  A    between atoms: _139  and  _140
REMARK   55  A    between atoms: _139  and  _142
REMARK   56  A    between atoms: _142  and  _143
REMARK   57  A    between atoms: _146  and  _148
REMARK   58  A    between atoms: _148  and  _149
REMARK   59  A    between atoms: _148  and  _151
REMARK   60  A    between atoms: _151  and  _152
REMARK   61  A    between atoms: _155  and  _157
REMARK   62  A    between atoms: _157  and  _158
REMARK   63  A    between atoms: _157  and  _160
REMARK   64  A    between atoms: _160  and  _161
REMARK   65  A    between atoms: _164  and  _166
REMARK   66  A    between atoms: _166  and  _167
REMARK   67  A    between atoms: _166  and  _169
REMARK   68  A    between atoms: _169  and  _170
REMARK   69  A    between atoms: _173  and  _175
REMARK   70  A    between atoms: _175  and  _176
REMARK   71  A    between atoms: _175  and  _178
REMARK   72  A    between atoms: _178  and  _179
REMARK   73  A    between atoms: _179  and  _180
REMARK   74  A    between atoms: _185  and  _187
REMARK   75  A    between atoms: _187  and  _188
REMARK   76  A    between atoms: _187  and  _190
REMARK   77  A    between atoms: _190  and  _191
REMARK   78  A    between atoms: _194  and  _196
REMARK   79  A    between atoms: _196  and  _197
REMARK   80  A    between atoms: _196  and  _199
REMARK   81  A    between atoms: _199  and  _200
REMARK   82  A    between atoms: _205  and  _207
REMARK   83  A    between atoms: _207  and  _208
REMARK   84  A    between atoms: _207  and  _210
REMARK   85  A    between atoms: _213  and  _215
REMARK   86  A    between atoms: _215  and  _216
REMARK   87  A    between atoms: _215  and  _218
REMARK   88  A    between atoms: _218  and  _219
REMARK   89  A    between atoms: _222  and  _224
REMARK   90  A    between atoms: _224  and  _225
REMARK   91  A    between atoms: _224  and  _227
REMARK   92  A    between atoms: _227  and  _228
REMARK   93  A    between atoms: _231  and  _233
REMARK   94  A    between atoms: _233  and  _234
REMARK   95  A    between atoms: _233  and  _236
REMARK   96  A    between atoms: _236  and  _237
REMARK   97  A    between atoms: _243  and  _245
REMARK   98  A    between atoms: _245  and  _246
REMARK   99  A    between atoms: _245  and  _248
REMARK  100  A    between atoms: _248  and  _249
REMARK  101  A    between atoms: _254  and  _256
REMARK  102  A    between atoms: _256  and  _257
REMARK  103  A    between atoms: _256  and  _259
REMARK  104  A    between atoms: _259  and  _260
REMARK  105  A    between atoms: _270  and  _272
REMARK  106  A    between atoms: _272  and  _273
REMARK  107  A    between atoms: _272  and  _275
REMARK  108  A    between atoms: _275  and  _276
REMARK  109  A    between atoms: _281  and  _282
REMARK  110  A    between atoms: _284  and  _286
REMARK  111  A    between atoms: _286  and  _287
REMARK  112  A    between atoms: _286  and  _289
REMARK  113  A    between atoms: _289  and  _290
REMARK  114  A    between atoms: _295  and  _297
REMARK  115  A    between atoms: _297  and  _298
REMARK  116  A    between atoms: _297  and  _300
REMARK  117  A    between atoms: _300  and  _301
REMARK  118  A    between atoms: _306  and  _308
REMARK  119  A    between atoms: _308  and  _309
REMARK  120  A    between atoms: _308  and  _311
REMARK  121  A    between atoms: _311  and  _312
REMARK  122  A    between atoms: _312  and  _313
REMARK  123  A    between atoms: _318  and  _320
REMARK  124  A    between atoms: _320  and  _321
REMARK  125  A    between atoms: _320  and  _323
REMARK  126  A    between atoms: _323  and  _324
REMARK  127  A    between atoms: _329  and  _330
REMARK  128  A    between atoms: _332  and  _334
REMARK  129  A    between atoms: _334  and  _335
REMARK  130  A    between atoms: _334  and  _337
REMARK  131  A    between atoms: _337  and  _338
REMARK  132  A    between atoms: _341  and  _343
REMARK  133  A    between atoms: _343  and  _344
REMARK  134  A    between atoms: _347  and  _349
REMARK  135  A    between atoms: _349  and  _350
REMARK  136  A    between atoms: _349  and  _352
REMARK  137  A    between atoms: _352  and  _353
REMARK  138  A    between atoms: _355  and  _357
REMARK  139  A    between atoms: _357  and  _358
REMARK  140  A    between atoms: _357  and  _360
REMARK  141  A    between atoms: _360  and  _361
REMARK  142  A    between atoms: _361  and  _362
REMARK  143  A    between atoms: _364  and  _366
REMARK  144  A    between atoms: _366  and  _367
REMARK  145  A    between atoms: _366  and  _369
REMARK  146  A    between atoms: _369  and  _370
REMARK  147  A    between atoms: _370  and  _371
REMARK  148  A    between atoms: _376  and  _378
REMARK  149  A    between atoms: _378  and  _379
REMARK  150  A    between atoms: _378  and  _381
REMARK  151  A    between atoms: _381  and  _382
REMARK  152  A    between atoms: _384  and  _386
REMARK  153  A    between atoms: _386  and  _387
REMARK  154  A    between atoms: _386  and  _389
REMARK  155  A    between atoms: _389  and  _390
REMARK  156  A    between atoms: _395  and  _396
REMARK  157  A    between atoms: _398  and  _400
REMARK  158  A    between atoms: _400  and  _401
REMARK  159  A    between atoms: _400  and  _403
REMARK  160  A    between atoms: _403  and  _404
REMARK  161  A    between atoms: _406  and  _408
REMARK  162  A    between atoms: _408  and  _409
REMARK  163  A    between atoms: _412  and  _414
REMARK  164  A    between atoms: _414  and  _415
REMARK  165  A    between atoms: _414  and  _417
REMARK  166  A    between atoms: _417  and  _418
REMARK  167  A    between atoms: _428  and  _430
REMARK  168  A    between atoms: _430  and  _431
REMARK  169  A    between atoms: _430  and  _433
REMARK  170  A    between atoms: _433  and  _434
REMARK  171  A    between atoms: _434  and  _435
REMARK  172  A    between atoms: _440  and  _442
REMARK  173  A    between atoms: _442  and  _443
REMARK  174  A    between atoms: _442  and  _445
REMARK  175  A    between atoms: _448  and  _450
REMARK  176  A    between atoms: _450  and  _451
REMARK  177  A    between atoms: _450  and  _453
REMARK  178  A    between atoms: _453  and  _454
REMARK  179  A    between atoms: _457  and  _459
REMARK  180  A    between atoms: _459  and  _460
REMARK  181  A    between atoms: _459  and  _462
REMARK  182  A    between atoms: _462  and  _463
REMARK  183  A    between atoms: _468  and  _469
REMARK  184  A    between atoms: _471  and  _473
REMARK  185  A    between atoms: _473  and  _474
REMARK  186  A    between atoms: _473  and  _476
REMARK  187  A    between atoms: _479  and  _481
REMARK  188  A    between atoms: _481  and  _482
REMARK  189  A    between atoms: _481  and  _484
REMARK  190  A    between atoms: _484  and  _485
REMARK  191  A    between atoms: _491  and  _493
REMARK  192  A    between atoms: _493  and  _494
REMARK  193  A    between atoms: _493  and  _496
REMARK  194  A    between atoms: _496  and  _497
REMARK  195  A    between atoms: _497  and  _498
REMARK  196  A    between atoms: _503  and  _505
REMARK  197  A    between atoms: _505  and  _506
REMARK  198  A    between atoms: _505  and  _508
REMARK  199  A    between atoms: _508  and  _509
REMARK  200  A    between atoms: _511  and  _513
REMARK  201  A    between atoms: _513  and  _514
REMARK  202  A    between atoms: _513  and  _516
REMARK  203  A    between atoms: _516  and  _517
REMARK  204  A    between atoms: _522  and  _524
REMARK  205  A    between atoms: _524  and  _525
REMARK  206  A    between atoms: _524  and  _527
REMARK  207  A    between atoms: _527  and  _528
REMARK  208  A    between atoms: _538  and  _540
REMARK  209  A    between atoms: _540  and  _541
REMARK  210  A    between atoms: _540  and  _543
REMARK  211  A    between atoms: _543  and  _544
REMARK  212  A    between atoms: _547  and  _549
REMARK  213  A    between atoms: _549  and  _550
REMARK  214  A    between atoms: _549  and  _552
REMARK  215  A    between atoms: _552  and  _553
REMARK  216  A    between atoms: _558  and  _559
REMARK  217  A    between atoms: _561  and  _563
REMARK  218  A    between atoms: _563  and  _564
REMARK  219  A    between atoms: _563  and  _566
REMARK  220  A    between atoms: _566  and  _567
REMARK  221  A    between atoms: _570  and  _572
REMARK  222  A    between atoms: _572  and  _573
REMARK  223  A    between atoms: _572  and  _575
REMARK  224  A    between atoms: _575  and  _576
REMARK  225  A    between atoms: _576  and  _577
REMARK  226  A    between atoms: _580  and  _582
REMARK  227  A    between atoms: _582  and  _583
REMARK  228  A    between atoms: _582  and  _585
REMARK  229  A    between atoms: _585  and  _586
REMARK  230  A    between atoms: _591  and  _593
REMARK  231  A    between atoms: _593  and  _594
REMARK  232  A    between atoms: _596  and  _598
REMARK  233  A    between atoms: _598  and  _599
REMARK  234  A    between atoms: _598  and  _601
REMARK  235  A    between atoms: _601  and  _602
REMARK  236  A    between atoms: _602  and  _603
REMARK  237  A    between atoms: _605  and  _607
REMARK  238  A    between atoms: _607  and  _608
REMARK  239  A    between atoms: _607  and  _610
REMARK  240  A    between atoms: _610  and  _611
REMARK  241  A    between atoms: _614  and  _616
REMARK  242  A    between atoms: _616  and  _617
REMARK  243  A    between atoms: _616  and  _619
REMARK  244  A    between atoms: _619  and  _620
REMARK  245  A    between atoms: _630  and  _632
REMARK  246  A    between atoms: _632  and  _633
REMARK  247  A    between atoms: _632  and  _635
REMARK  248  A    between atoms: _635  and  _636
REMARK  249  A    between atoms: _638  and  _640
REMARK  250  A    between atoms: _640  and  _641
REMARK  251  A    between atoms: _640  and  _643
REMARK  252  A    between atoms: _643  and  _644
REMARK  253  A    between atoms: _649  and  _651
REMARK  254  A    between atoms: _651  and  _652
REMARK  255  A    between atoms: _651  and  _654
REMARK  256  A    between atoms: _654  and  _655
REMARK  257  A    between atoms: _661  and  _663
REMARK  258  A    between atoms: _663  and  _664
REMARK  259  A    between atoms: _663  and  _666
REMARK  260  A    between atoms: _666  and  _667
REMARK  261  A    between atoms: _667  and  _668
REMARK  262  A    between atoms: _671  and  _673
REMARK  263  A    between atoms: _673  and  _674
REMARK  264  A    between atoms: _673  and  _676
REMARK  265  A    between atoms: _676  and  _677
REMARK  266  A    between atoms: _687  and  _689
REMARK  267  A    between atoms: _689  and  _690
REMARK  268  A    between atoms: _689  and  _692
REMARK  269  A    between atoms: _692  and  _693
REMARK  270  A    between atoms: _696  and  _698
REMARK  271  A    between atoms: _698  and  _699
REMARK  272  A    between atoms: _698  and  _701
REMARK  273  A    between atoms: _701  and  _702
REMARK  274  A    between atoms: _704  and  _706
REMARK  275  A    between atoms: _706  and  _707
REMARK  276  A    between atoms: _706  and  _709
REMARK  277  A    between atoms: _709  and  _710
REMARK  278  A    between atoms: _712  and  _714
REMARK  279  A    between atoms: _714  and  _715
REMARK  280  A    between atoms: _714  and  _717
REMARK  281  A    between atoms: _717  and  _718
REMARK                            x       y       z     vdW  Elec       q    Type
REMARK                         _______ _______ _______ _____ _____    ______ ____
ROOT
ATOM      1  O   HOH     1       3.036  -3.470  53.279  0.00  0.00    +0.000 OA
ENDROOT
TORSDOF 0
REMARK  Name = ../refined-set-2016/3f5k/3f5k_pocket.pdb
REMARK  281 active torsions:
REMARK  status: ('A' for Active; 'I' for Inactive)
REMARK    1  A    between atoms: _1  and  _3
REMARK    2  A    between atoms: _3  and  _4
REMARK    3  A    between atoms: _3  and  _6
REMARK    4  A    between atoms: _9  and  _11
REMARK    5  A    between atoms: _11  and  _12
REMARK    6  A    between atoms: _11  and  _14
REMARK    7  A    between atoms: _14  and  _15
REMARK    8  A    between atoms: _18  and  _20
REMARK    9  A    between atoms: _20  and  _21
REMARK   10  A    between atoms: _20  and  _23
REMARK   11  A    between atoms: _23  and  _24
REMARK   12  A    between atoms: _26  and  _28
REMARK   13  A    between atoms: _28  and  _29
REMARK   14  A    between atoms: _32  and  _34
REMARK   15  A    between atoms: _34  and  _35
REMARK   16  A    between atoms: _34  and  _37
REMARK   17  A    between atoms: _37  and  _38
REMARK   18  A    between atoms: _38  and  _39
REMARK   19  A    between atoms: _44  and  _46
REMARK   20  A    between atoms: _46  and  _47
REMARK   21  A    between atoms: _46  and  _49
REMARK   22  A    between atoms: _49  and  _50
REMARK   23  A    between atoms: _50  and  _51
REMARK   24  A    between atoms: _51  and  _52
REMARK   25  A    between atoms: _61  and  _63
REMARK   26  A    between atoms: _63  and  _64
REMARK   27  A    between atoms: _63  and  _66
REMARK   28  A    between atoms: _66  and  _67
REMARK   29  A    between atoms: _72  and  _74
REMARK   30  A    between atoms: _74  and  _75
REMARK   31  A    between atoms: _74  and  _77
REMARK   32  A    between atoms: _77  and  _78
REMARK   33  A    between atoms: _83  and  _85
REMARK   34  A    between atoms: _85  and  _86
REMARK   35  A    between atoms: _85  and  _88
REMARK   36  A    between atoms: _88  and  _89
REMARK   37  A    between atoms: _94  and  _95
REMARK   38  A    between atoms: _97  and  _99
REMARK   39  A    between atoms: _99  and  _100
REMARK   40  A    between atoms: _99  and  _102
REMARK   41  A    between atoms: _102  and  _103
REMARK   42  A    between atoms: _108  and  _110
REMARK   43  A    between atoms: _110  and  _111
REMARK   44  A    between atoms: _110  and  _113
REMARK   45  A    between atoms: _113  and  _114
REMARK   46  A    between atoms: _114  and  _115
REMARK   47  A    between atoms: _120  and  _122
REMARK   48  A    between atoms: _122  and  _123
REMARK   49  A    between atoms: _122  and  _125
REMARK   50  A    between atoms: _125  and  _126
REMARK   51  A    between atoms: _126  and  _127
REMARK   52  A    between atoms: _127  and  _128
REMARK   53  A    between atoms: _137  and  _139
REMARK   54  A    between atoms: _139  and  _140
REMARK   55  A    between atoms: _139  and  _142
REMARK   56  A    between atoms: _142  and  _143
REMARK   57  A    between atoms: _146  and  _148
REMARK   58  A    between atoms: _148  and  _149
REMARK   59  A    between atoms: _148  and  _151
REMARK   60  A    between atoms: _151  and  _152
REMARK   61  A    between atoms: _155  and  _157
REMARK   62  A    between atoms: _157  and  _158
REMARK   63  A    between atoms: _157  and  _160
REMARK   64  A    between atoms: _160  and  _161
REMARK   65  A    between atoms: _164  and  _166
REMARK   66  A    between atoms: _166  and  _167
REMARK   67  A    between atoms: _166  and  _169
REMARK   68  A    between atoms: _169  and  _170
REMARK   69  A    between atoms: _173  and  _175
REMARK   70  A    between atoms: _175  and  _176
REMARK   71  A    between atoms: _175  and  _178
REMARK   72  A    between atoms: _178  and  _179
REMARK   73  A    between atoms: _179  and  _180
REMARK   74  A    between atoms: _185  and  _187
REMARK   75  A    between atoms: _187  and  _188
REMARK   76  A    between atoms: _187  and  _190
REMARK   77  A    between atoms: _190  and  _191
REMARK   78  A    between atoms: _194  and  _196
REMARK   79  A    between atoms: _196  and  _197
REMARK   80  A    between atoms: _196  and  _199
REMARK   81  A    between atoms: _199  and  _200
REMARK   82  A    between atoms: _205  and  _207
REMARK   83  A    between atoms: _207  and  _208
REMARK   84  A    between atoms: _207  and  _210
REMARK   85  A    between atoms: _213  and  _215
REMARK   86  A    between atoms: _215  and  _216
REMARK   87  A    between atoms: _215  and  _218
REMARK   88  A    between atoms: _218  and  _219
REMARK   89  A    between atoms: _222  and  _224
REMARK   90  A    between atoms: _224  and  _225
REMARK   91  A    between atoms: _224  and  _227
REMARK   92  A    between atoms: _227  and  _228
REMARK   93  A    between atoms: _231  and  _233
REMARK   94  A    between atoms: _233  and  _234
REMARK   95  A    between atoms: _233  and  _236
REMARK   96  A    between atoms: _236  and  _237
REMARK   97  A    between atoms: _243  and  _245
REMARK   98  A    between atoms: _245  and  _246
REMARK   99  A    between atoms: _245  and  _248
REMARK  100  A    between atoms: _248  and  _249
REMARK  101  A    between atoms: _254  and  _256
REMARK  102  A    between atoms: _256  and  _257
REMARK  103  A    between atoms: _256  and  _259
REMARK  104  A    between atoms: _259  and  _260
REMARK  105  A    between atoms: _270  and  _272
REMARK  106  A    between atoms: _272  and  _273
REMARK  107  A    between atoms: _272  and  _275
REMARK  108  A    between atoms: _275  and  _276
REMARK  109  A    between atoms: _281  and  _282
REMARK  110  A    between atoms: _284  and  _286
REMARK  111  A    between atoms: _286  and  _287
REMARK  112  A    between atoms: _286  and  _289
REMARK  113  A    between atoms: _289  and  _290
REMARK  114  A    between atoms: _295  and  _297
REMARK  115  A    between atoms: _297  and  _298
REMARK  116  A    between atoms: _297  and  _300
REMARK  117  A    between atoms: _300  and  _301
REMARK  118  A    between atoms: _306  and  _308
REMARK  119  A    between atoms: _308  and  _309
REMARK  120  A    between atoms: _308  and  _311
REMARK  121  A    between atoms: _311  and  _312
REMARK  122  A    between atoms: _312  and  _313
REMARK  123  A    between atoms: _318  and  _320
REMARK  124  A    between atoms: _320  and  _321
REMARK  125  A    between atoms: _320  and  _323
REMARK  126  A    between atoms: _323  and  _324
REMARK  127  A    between atoms: _329  and  _330
REMARK  128  A    between atoms: _332  and  _334
REMARK  129  A    between atoms: _334  and  _335
REMARK  130  A    between atoms: _334  and  _337
REMARK  131  A    between atoms: _337  and  _338
REMARK  132  A    between atoms: _341  and  _343
REMARK  133  A    between atoms: _343  and  _344
REMARK  134  A    between atoms: _347  and  _349
REMARK  135  A    between atoms: _349  and  _350
REMARK  136  A    between atoms: _349  and  _352
REMARK  137  A    between atoms: _352  and  _353
REMARK  138  A    between atoms: _355  and  _357
REMARK  139  A    between atoms: _357  and  _358
REMARK  140  A    between atoms: _357  and  _360
REMARK  141  A    between atoms: _360  and  _361
REMARK  142  A    between atoms: _361  and  _362
REMARK  143  A    between atoms: _364  and  _366
REMARK  144  A    between atoms: _366  and  _367
REMARK  145  A    between atoms: _366  and  _369
REMARK  146  A    between atoms: _369  and  _370
REMARK  147  A    between atoms: _370  and  _371
REMARK  148  A    between atoms: _376  and  _378
REMARK  149  A    between atoms: _378  and  _379
REMARK  150  A    between atoms: _378  and  _381
REMARK  151  A    between atoms: _381  and  _382
REMARK  152  A    between atoms: _384  and  _386
REMARK  153  A    between atoms: _386  and  _387
REMARK  154  A    between atoms: _386  and  _389
REMARK  155  A    between atoms: _389  and  _390
REMARK  156  A    between atoms: _395  and  _396
REMARK  157  A    between atoms: _398  and  _400
REMARK  158  A    between atoms: _400  and  _401
REMARK  159  A    between atoms: _400  and  _403
REMARK  160  A    between atoms: _403  and  _404
REMARK  161  A    between atoms: _406  and  _408
REMARK  162  A    between atoms: _408  and  _409
REMARK  163  A    between atoms: _412  and  _414
REMARK  164  A    between atoms: _414  and  _415
REMARK  165  A    between atoms: _414  and  _417
REMARK  166  A    between atoms: _417  and  _418
REMARK  167  A    between atoms: _428  and  _430
REMARK  168  A    between atoms: _430  and  _431
REMARK  169  A    between atoms: _430  and  _433
REMARK  170  A    between atoms: _433  and  _434
REMARK  171  A    between atoms: _434  and  _435
REMARK  172  A    between atoms: _440  and  _442
REMARK  173  A    between atoms: _442  and  _443
REMARK  174  A    between atoms: _442  and  _445
REMARK  175  A    between atoms: _448  and  _450
REMARK  176  A    between atoms: _450  and  _451
REMARK  177  A    between atoms: _450  and  _453
REMARK  178  A    between atoms: _453  and  _454
REMARK  179  A    between atoms: _457  and  _459
REMARK  180  A    between atoms: _459  and  _460
REMARK  181  A    between atoms: _459  and  _462
REMARK  182  A    between atoms: _462  and  _463
REMARK  183  A    between atoms: _468  and  _469
REMARK  184  A    between atoms: _471  and  _473
REMARK  185  A    between atoms: _473  and  _474
REMARK  186  A    between atoms: _473  and  _476
REMARK  187  A    between atoms: _479  and  _481
REMARK  188  A    between atoms: _481  and  _482
REMARK  189  A    between atoms: _481  and  _484
REMARK  190  A    between atoms: _484  and  _485
REMARK  191  A    between atoms: _491  and  _493
REMARK  192  A    between atoms: _493  and  _494
REMARK  193  A    between atoms: _493  and  _496
REMARK  194  A    between atoms: _496  and  _497
REMARK  195  A    between atoms: _497  and  _498
REMARK  196  A    between atoms: _503  and  _505
REMARK  197  A    between atoms: _505  and  _506
REMARK  198  A    between atoms: _505  and  _508
REMARK  199  A    between atoms: _508  and  _509
REMARK  200  A    between atoms: _511  and  _513
REMARK  201  A    between atoms: _513  and  _514
REMARK  202  A    between atoms: _513  and  _516
REMARK  203  A    between atoms: _516  and  _517
REMARK  204  A    between atoms: _522  and  _524
REMARK  205  A    between atoms: _524  and  _525
REMARK  206  A    between atoms: _524  and  _527
REMARK  207  A    between atoms: _527  and  _528
REMARK  208  A    between atoms: _538  and  _540
REMARK  209  A    between atoms: _540  and  _541
REMARK  210  A    between atoms: _540  and  _543
REMARK  211  A    between atoms: _543  and  _544
REMARK  212  A    between atoms: _547  and  _549
REMARK  213  A    between atoms: _549  and  _550
REMARK  214  A    between atoms: _549  and  _552
REMARK  215  A    between atoms: _552  and  _553
REMARK  216  A    between atoms: _558  and  _559
REMARK  217  A    between atoms: _561  and  _563
REMARK  218  A    between atoms: _563  and  _564
REMARK  219  A    between atoms: _563  and  _566
REMARK  220  A    between atoms: _566  and  _567
REMARK  221  A    between atoms: _570  and  _572
REMARK  222  A    between atoms: _572  and  _573
REMARK  223  A    between atoms: _572  and  _575
REMARK  224  A    between atoms: _575  and  _576
REMARK  225  A    between atoms: _576  and  _577
REMARK  226  A    between atoms: _580  and  _582
REMARK  227  A    between atoms: _582  and  _583
REMARK  228  A    between atoms: _582  and  _585
REMARK  229  A    between atoms: _585  and  _586
REMARK  230  A    between atoms: _591  and  _593
REMARK  231  A    between atoms: _593  and  _594
REMARK  232  A    between atoms: _596  and  _598
REMARK  233  A    between atoms: _598  and  _599
REMARK  234  A    between atoms: _598  and  _601
REMARK  235  A    between atoms: _601  and  _602
REMARK  236  A    between atoms: _602  and  _603
REMARK  237  A    between atoms: _605  and  _607
REMARK  238  A    between atoms: _607  and  _608
REMARK  239  A    between atoms: _607  and  _610
REMARK  240  A    between atoms: _610  and  _611
REMARK  241  A    between atoms: _614  and  _616
REMARK  242  A    between atoms: _616  and  _617
REMARK  243  A    between atoms: _616  and  _619
REMARK  244  A    between atoms: _619  and  _620
REMARK  245  A    between atoms: _630  and  _632
REMARK  246  A    between atoms: _632  and  _633
REMARK  247  A    between atoms: _632  and  _635
REMARK  248  A    between atoms: _635  and  _636
REMARK  249  A    between atoms: _638  and  _640
REMARK  250  A    between atoms: _640  and  _641
REMARK  251  A    between atoms: _640  and  _643
REMARK  252  A    between atoms: _643  and  _644
REMARK  253  A    between atoms: _649  and  _651
REMARK  254  A    between atoms: _651  and  _652
REMARK  255  A    between atoms: _651  and  _654
REMARK  256  A    between atoms: _654  and  _655
REMARK  257  A    between atoms: _661  and  _663
REMARK  258  A    between atoms: _663  and  _664
REMARK  259  A    between atoms: _663  and  _666
REMARK  260  A    between atoms: _666  and  _667
REMARK  261  A    between atoms: _667  and  _668
REMARK  262  A    between atoms: _671  and  _673
REMARK  263  A    between atoms: _673  and  _674
REMARK  264  A    between atoms: _673  and  _676
REMARK  265  A    between atoms: _676  and  _677
REMARK  266  A    between atoms: _687  and  _689
REMARK  267  A    between atoms: _689  and  _690
REMARK  268  A    between atoms: _689  and  _692
REMARK  269  A    between atoms: _692  and  _693
REMARK  270  A    between atoms: _696  and  _698
REMARK  271  A    between atoms: _698  and  _699
REMARK  272  A    between atoms: _698  and  _701
REMARK  273  A    between atoms: _701  and  _702
REMARK  274  A    between atoms: _704  and  _706
REMARK  275  A    between atoms: _706  and  _707
REMARK  276  A    between atoms: _706  and  _709
REMARK  277  A    between atoms: _709  and  _710
REMARK  278  A    between atoms: _712  and  _714
REMARK  279  A    between atoms: _714  and  _715
REMARK  280  A    between atoms: _714  and  _717
REMARK  281  A    between atoms: _717  and  _718
REMARK                            x       y       z     vdW  Elec       q    Type
REMARK                         _______ _______ _______ _____ _____    ______ ____
ROOT
ATOM      1  O   HOH     1       5.080   5.149  49.796  0.00  0.00    +0.000 OA
ENDROOT
TORSDOF 0
REMARK  Name = ../refined-set-2016/3f5k/3f5k_pocket.pdb
REMARK  281 active torsions:
REMARK  status: ('A' for Active; 'I' for Inactive)
REMARK    1  A    between atoms: _1  and  _3
REMARK    2  A    between atoms: _3  and  _4
REMARK    3  A    between atoms: _3  and  _6
REMARK    4  A    between atoms: _9  and  _11
REMARK    5  A    between atoms: _11  and  _12
REMARK    6  A    between atoms: _11  and  _14
REMARK    7  A    between atoms: _14  and  _15
REMARK    8  A    between atoms: _18  and  _20
REMARK    9  A    between atoms: _20  and  _21
REMARK   10  A    between atoms: _20  and  _23
REMARK   11  A    between atoms: _23  and  _24
REMARK   12  A    between atoms: _26  and  _28
REMARK   13  A    between atoms: _28  and  _29
REMARK   14  A    between atoms: _32  and  _34
REMARK   15  A    between atoms: _34  and  _35
REMARK   16  A    between atoms: _34  and  _37
REMARK   17  A    between atoms: _37  and  _38
REMARK   18  A    between atoms: _38  and  _39
REMARK   19  A    between atoms: _44  and  _46
REMARK   20  A    between atoms: _46  and  _47
REMARK   21  A    between atoms: _46  and  _49
REMARK   22  A    between atoms: _49  and  _50
REMARK   23  A    between atoms: _50  and  _51
REMARK   24  A    between atoms: _51  and  _52
REMARK   25  A    between atoms: _61  and  _63
REMARK   26  A    between atoms: _63  and  _64
REMARK   27  A    between atoms: _63  and  _66
REMARK   28  A    between atoms: _66  and  _67
REMARK   29  A    between atoms: _72  and  _74
REMARK   30  A    between atoms: _74  and  _75
REMARK   31  A    between atoms: _74  and  _77
REMARK   32  A    between atoms: _77  and  _78
REMARK   33  A    between atoms: _83  and  _85
REMARK   34  A    between atoms: _85  and  _86
REMARK   35  A    between atoms: _85  and  _88
REMARK   36  A    between atoms: _88  and  _89
REMARK   37  A    between atoms: _94  and  _95
REMARK   38  A    between atoms: _97  and  _99
REMARK   39  A    between atoms: _99  and  _100
REMARK   40  A    between atoms: _99  and  _102
REMARK   41  A    between atoms: _102  and  _103
REMARK   42  A    between atoms: _108  and  _110
REMARK   43  A    between atoms: _110  and  _111
REMARK   44  A    between atoms: _110  and  _113
REMARK   45  A    between atoms: _113  and  _114
REMARK   46  A    between atoms: _114  and  _115
REMARK   47  A    between atoms: _120  and  _122
REMARK   48  A    between atoms: _122  and  _123
REMARK   49  A    between atoms: _122  and  _125
REMARK   50  A    between atoms: _125  and  _126
REMARK   51  A    between atoms: _126  and  _127
REMARK   52  A    between atoms: _127  and  _128
REMARK   53  A    between atoms: _137  and  _139
REMARK   54  A    between atoms: _139  and  _140
REMARK   55  A    between atoms: _139  and  _142
REMARK   56  A    between atoms: _142  and  _143
REMARK   57  A    between atoms: _146  and  _148
REMARK   58  A    between atoms: _148  and  _149
REMARK   59  A    between atoms: _148  and  _151
REMARK   60  A    between atoms: _151  and  _152
REMARK   61  A    between atoms: _155  and  _157
REMARK   62  A    between atoms: _157  and  _158
REMARK   63  A    between atoms: _157  and  _160
REMARK   64  A    between atoms: _160  and  _161
REMARK   65  A    between atoms: _164  and  _166
REMARK   66  A    between atoms: _166  and  _167
REMARK   67  A    between atoms: _166  and  _169
REMARK   68  A    between atoms: _169  and  _170
REMARK   69  A    between atoms: _173  and  _175
REMARK   70  A    between atoms: _175  and  _176
REMARK   71  A    between atoms: _175  and  _178
REMARK   72  A    between atoms: _178  and  _179
REMARK   73  A    between atoms: _179  and  _180
REMARK   74  A    between atoms: _185  and  _187
REMARK   75  A    between atoms: _187  and  _188
REMARK   76  A    between atoms: _187  and  _190
REMARK   77  A    between atoms: _190  and  _191
REMARK   78  A    between atoms: _194  and  _196
REMARK   79  A    between atoms: _196  and  _197
REMARK   80  A    between atoms: _196  and  _199
REMARK   81  A    between atoms: _199  and  _200
REMARK   82  A    between atoms: _205  and  _207
REMARK   83  A    between atoms: _207  and  _208
REMARK   84  A    between atoms: _207  and  _210
REMARK   85  A    between atoms: _213  and  _215
REMARK   86  A    between atoms: _215  and  _216
REMARK   87  A    between atoms: _215  and  _218
REMARK   88  A    between atoms: _218  and  _219
REMARK   89  A    between atoms: _222  and  _224
REMARK   90  A    between atoms: _224  and  _225
REMARK   91  A    between atoms: _224  and  _227
REMARK   92  A    between atoms: _227  and  _228
REMARK   93  A    between atoms: _231  and  _233
REMARK   94  A    between atoms: _233  and  _234
REMARK   95  A    between atoms: _233  and  _236
REMARK   96  A    between atoms: _236  and  _237
REMARK   97  A    between atoms: _243  and  _245
REMARK   98  A    between atoms: _245  and  _246
REMARK   99  A    between atoms: _245  and  _248
REMARK  100  A    between atoms: _248  and  _249
REMARK  101  A    between atoms: _254  and  _256
REMARK  102  A    between atoms: _256  and  _257
REMARK  103  A    between atoms: _256  and  _259
REMARK  104  A    between atoms: _259  and  _260
REMARK  105  A    between atoms: _270  and  _272
REMARK  106  A    between atoms: _272  and  _273
REMARK  107  A    between atoms: _272  and  _275
REMARK  108  A    between atoms: _275  and  _276
REMARK  109  A    between atoms: _281  and  _282
REMARK  110  A    between atoms: _284  and  _286
REMARK  111  A    between atoms: _286  and  _287
REMARK  112  A    between atoms: _286  and  _289
REMARK  113  A    between atoms: _289  and  _290
REMARK  114  A    between atoms: _295  and  _297
REMARK  115  A    between atoms: _297  and  _298
REMARK  116  A    between atoms: _297  and  _300
REMARK  117  A    between atoms: _300  and  _301
REMARK  118  A    between atoms: _306  and  _308
REMARK  119  A    between atoms: _308  and  _309
REMARK  120  A    between atoms: _308  and  _311
REMARK  121  A    between atoms: _311  and  _312
REMARK  122  A    between atoms: _312  and  _313
REMARK  123  A    between atoms: _318  and  _320
REMARK  124  A    between atoms: _320  and  _321
REMARK  125  A    between atoms: _320  and  _323
REMARK  126  A    between atoms: _323  and  _324
REMARK  127  A    between atoms: _329  and  _330
REMARK  128  A    between atoms: _332  and  _334
REMARK  129  A    between atoms: _334  and  _335
REMARK  130  A    between atoms: _334  and  _337
REMARK  131  A    between atoms: _337  and  _338
REMARK  132  A    between atoms: _341  and  _343
REMARK  133  A    between atoms: _343  and  _344
REMARK  134  A    between atoms: _347  and  _349
REMARK  135  A    between atoms: _349  and  _350
REMARK  136  A    between atoms: _349  and  _352
REMARK  137  A    between atoms: _352  and  _353
REMARK  138  A    between atoms: _355  and  _357
REMARK  139  A    between atoms: _357  and  _358
REMARK  140  A    between atoms: _357  and  _360
REMARK  141  A    between atoms: _360  and  _361
REMARK  142  A    between atoms: _361  and  _362
REMARK  143  A    between atoms: _364  and  _366
REMARK  144  A    between atoms: _366  and  _367
REMARK  145  A    between atoms: _366  and  _369
REMARK  146  A    between atoms: _369  and  _370
REMARK  147  A    between atoms: _370  and  _371
REMARK  148  A    between atoms: _376  and  _378
REMARK  149  A    between atoms: _378  and  _379
REMARK  150  A    between atoms: _378  and  _381
REMARK  151  A    between atoms: _381  and  _382
REMARK  152  A    between atoms: _384  and  _386
REMARK  153  A    between atoms: _386  and  _387
REMARK  154  A    between atoms: _386  and  _389
REMARK  155  A    between atoms: _389  and  _390
REMARK  156  A    between atoms: _395  and  _396
REMARK  157  A    between atoms: _398  and  _400
REMARK  158  A    between atoms: _400  and  _401
REMARK  159  A    between atoms: _400  and  _403
REMARK  160  A    between atoms: _403  and  _404
REMARK  161  A    between atoms: _406  and  _408
REMARK  162  A    between atoms: _408  and  _409
REMARK  163  A    between atoms: _412  and  _414
REMARK  164  A    between atoms: _414  and  _415
REMARK  165  A    between atoms: _414  and  _417
REMARK  166  A    between atoms: _417  and  _418
REMARK  167  A    between atoms: _428  and  _430
REMARK  168  A    between atoms: _430  and  _431
REMARK  169  A    between atoms: _430  and  _433
REMARK  170  A    between atoms: _433  and  _434
REMARK  171  A    between atoms: _434  and  _435
REMARK  172  A    between atoms: _440  and  _442
REMARK  173  A    between atoms: _442  and  _443
REMARK  174  A    between atoms: _442  and  _445
REMARK  175  A    between atoms: _448  and  _450
REMARK  176  A    between atoms: _450  and  _451
REMARK  177  A    between atoms: _450  and  _453
REMARK  178  A    between atoms: _453  and  _454
REMARK  179  A    between atoms: _457  and  _459
REMARK  180  A    between atoms: _459  and  _460
REMARK  181  A    between atoms: _459  and  _462
REMARK  182  A    between atoms: _462  and  _463
REMARK  183  A    between atoms: _468  and  _469
REMARK  184  A    between atoms: _471  and  _473
REMARK  185  A    between atoms: _473  and  _474
REMARK  186  A    between atoms: _473  and  _476
REMARK  187  A    between atoms: _479  and  _481
REMARK  188  A    between atoms: _481  and  _482
REMARK  189  A    between atoms: _481  and  _484
REMARK  190  A    between atoms: _484  and  _485
REMARK  191  A    between atoms: _491  and  _493
REMARK  192  A    between atoms: _493  and  _494
REMARK  193  A    between atoms: _493  and  _496
REMARK  194  A    between atoms: _496  and  _497
REMARK  195  A    between atoms: _497  and  _498
REMARK  196  A    between atoms: _503  and  _505
REMARK  197  A    between atoms: _505  and  _506
REMARK  198  A    between atoms: _505  and  _508
REMARK  199  A    between atoms: _508  and  _509
REMARK  200  A    between atoms: _511  and  _513
REMARK  201  A    between atoms: _513  and  _514
REMARK  202  A    between atoms: _513  and  _516
REMARK  203  A    between atoms: _516  and  _517
REMARK  204  A    between atoms: _522  and  _524
REMARK  205  A    between atoms: _524  and  _525
REMARK  206  A    between atoms: _524  and  _527
REMARK  207  A    between atoms: _527  and  _528
REMARK  208  A    between atoms: _538  and  _540
REMARK  209  A    between atoms: _540  and  _541
REMARK  210  A    between atoms: _540  and  _543
REMARK  211  A    between atoms: _543  and  _544
REMARK  212  A    between atoms: _547  and  _549
REMARK  213  A    between atoms: _549  and  _550
REMARK  214  A    between atoms: _549  and  _552
REMARK  215  A    between atoms: _552  and  _553
REMARK  216  A    between atoms: _558  and  _559
REMARK  217  A    between atoms: _561  and  _563
REMARK  218  A    between atoms: _563  and  _564
REMARK  219  A    between atoms: _563  and  _566
REMARK  220  A    between atoms: _566  and  _567
REMARK  221  A    between atoms: _570  and  _572
REMARK  222  A    between atoms: _572  and  _573
REMARK  223  A    between atoms: _572  and  _575
REMARK  224  A    between atoms: _575  and  _576
REMARK  225  A    between atoms: _576  and  _577
REMARK  226  A    between atoms: _580  and  _582
REMARK  227  A    between atoms: _582  and  _583
REMARK  228  A    between atoms: _582  and  _585
REMARK  229  A    between atoms: _585  and  _586
REMARK  230  A    between atoms: _591  and  _593
REMARK  231  A    between atoms: _593  and  _594
REMARK  232  A    between atoms: _596  and  _598
REMARK  233  A    between atoms: _598  and  _599
REMARK  234  A    between atoms: _598  and  _601
REMARK  235  A    between atoms: _601  and  _602
REMARK  236  A    between atoms: _602  and  _603
REMARK  237  A    between atoms: _605  and  _607
REMARK  238  A    between atoms: _607  and  _608
REMARK  239  A    between atoms: _607  and  _610
REMARK  240  A    between atoms: _610  and  _611
REMARK  241  A    between atoms: _614  and  _616
REMARK  242  A    between atoms: _616  and  _617
REMARK  243  A    between atoms: _616  and  _619
REMARK  244  A    between atoms: _619  and  _620
REMARK  245  A    between atoms: _630  and  _632
REMARK  246  A    between atoms: _632  and  _633
REMARK  247  A    between atoms: _632  and  _635
REMARK  248  A    between atoms: _635  and  _636
REMARK  249  A    between atoms: _638  and  _640
REMARK  250  A    between atoms: _640  and  _641
REMARK  251  A    between atoms: _640  and  _643
REMARK  252  A    between atoms: _643  and  _644
REMARK  253  A    between atoms: _649  and  _651
REMARK  254  A    between atoms: _651  and  _652
REMARK  255  A    between atoms: _651  and  _654
REMARK  256  A    between atoms: _654  and  _655
REMARK  257  A    between atoms: _661  and  _663
REMARK  258  A    between atoms: _663  and  _664
REMARK  259  A    between atoms: _663  and  _666
REMARK  260  A    between atoms: _666  and  _667
REMARK  261  A    between atoms: _667  and  _668
REMARK  262  A    between atoms: _671  and  _673
REMARK  263  A    between atoms: _673  and  _674
REMARK  264  A    between atoms: _673  and  _676
REMARK  265  A    between atoms: _676  and  _677
REMARK  266  A    between atoms: _687  and  _689
REMARK  267  A    between atoms: _689  and  _690
REMARK  268  A    between atoms: _689  and  _692
REMARK  269  A    between atoms: _692  and  _693
REMARK  270  A    between atoms: _696  and  _698
REMARK  271  A    between atoms: _698  and  _699
REMARK  272  A    between atoms: _698  and  _701
REMARK  273  A    between atoms: _701  and  _702
REMARK  274  A    between atoms: _704  and  _706
REMARK  275  A    between atoms: _706  and  _707
REMARK  276  A    between atoms: _706  and  _709
REMARK  277  A    between atoms: _709  and  _710
REMARK  278  A    between atoms: _712  and  _714
REMARK  279  A    between atoms: _714  and  _715
REMARK  280  A    between atoms: _714  and  _717
REMARK  281  A    between atoms: _717  and  _718
REMARK                            x       y       z     vdW  Elec       q    Type
REMARK                         _______ _______ _______ _____ _____    ______ ____
ROOT
ATOM      1  O   HOH     1      -1.856  -0.702  41.259  0.00  0.00    +0.000 OA
ENDROOT
TORSDOF 0
REMARK  Name = ../refined-set-2016/3f5k/3f5k_pocket.pdb
REMARK  281 active torsions:
REMARK  status: ('A' for Active; 'I' for Inactive)
REMARK    1  A    between atoms: _1  and  _3
REMARK    2  A    between atoms: _3  and  _4
REMARK    3  A    between atoms: _3  and  _6
REMARK    4  A    between atoms: _9  and  _11
REMARK    5  A    between atoms: _11  and  _12
REMARK    6  A    between atoms: _11  and  _14
REMARK    7  A    between atoms: _14  and  _15
REMARK    8  A    between atoms: _18  and  _20
REMARK    9  A    between atoms: _20  and  _21
REMARK   10  A    between atoms: _20  and  _23
REMARK   11  A    between atoms: _23  and  _24
REMARK   12  A    between atoms: _26  and  _28
REMARK   13  A    between atoms: _28  and  _29
REMARK   14  A    between atoms: _32  and  _34
REMARK   15  A    between atoms: _34  and  _35
REMARK   16  A    between atoms: _34  and  _37
REMARK   17  A    between atoms: _37  and  _38
REMARK   18  A    between atoms: _38  and  _39
REMARK   19  A    between atoms: _44  and  _46
REMARK   20  A    between atoms: _46  and  _47
REMARK   21  A    between atoms: _46  and  _49
REMARK   22  A    between atoms: _49  and  _50
REMARK   23  A    between atoms: _50  and  _51
REMARK   24  A    between atoms: _51  and  _52
REMARK   25  A    between atoms: _61  and  _63
REMARK   26  A    between atoms: _63  and  _64
REMARK   27  A    between atoms: _63  and  _66
REMARK   28  A    between atoms: _66  and  _67
REMARK   29  A    between atoms: _72  and  _74
REMARK   30  A    between atoms: _74  and  _75
REMARK   31  A    between atoms: _74  and  _77
REMARK   32  A    between atoms: _77  and  _78
REMARK   33  A    between atoms: _83  and  _85
REMARK   34  A    between atoms: _85  and  _86
REMARK   35  A    between atoms: _85  and  _88
REMARK   36  A    between atoms: _88  and  _89
REMARK   37  A    between atoms: _94  and  _95
REMARK   38  A    between atoms: _97  and  _99
REMARK   39  A    between atoms: _99  and  _100
REMARK   40  A    between atoms: _99  and  _102
REMARK   41  A    between atoms: _102  and  _103
REMARK   42  A    between atoms: _108  and  _110
REMARK   43  A    between atoms: _110  and  _111
REMARK   44  A    between atoms: _110  and  _113
REMARK   45  A    between atoms: _113  and  _114
REMARK   46  A    between atoms: _114  and  _115
REMARK   47  A    between atoms: _120  and  _122
REMARK   48  A    between atoms: _122  and  _123
REMARK   49  A    between atoms: _122  and  _125
REMARK   50  A    between atoms: _125  and  _126
REMARK   51  A    between atoms: _126  and  _127
REMARK   52  A    between atoms: _127  and  _128
REMARK   53  A    between atoms: _137  and  _139
REMARK   54  A    between atoms: _139  and  _140
REMARK   55  A    between atoms: _139  and  _142
REMARK   56  A    between atoms: _142  and  _143
REMARK   57  A    between atoms: _146  and  _148
REMARK   58  A    between atoms: _148  and  _149
REMARK   59  A    between atoms: _148  and  _151
REMARK   60  A    between atoms: _151  and  _152
REMARK   61  A    between atoms: _155  and  _157
REMARK   62  A    between atoms: _157  and  _158
REMARK   63  A    between atoms: _157  and  _160
REMARK   64  A    between atoms: _160  and  _161
REMARK   65  A    between atoms: _164  and  _166
REMARK   66  A    between atoms: _166  and  _167
REMARK   67  A    between atoms: _166  and  _169
REMARK   68  A    between atoms: _169  and  _170
REMARK   69  A    between atoms: _173  and  _175
REMARK   70  A    between atoms: _175  and  _176
REMARK   71  A    between atoms: _175  and  _178
REMARK   72  A    between atoms: _178  and  _179
REMARK   73  A    between atoms: _179  and  _180
REMARK   74  A    between atoms: _185  and  _187
REMARK   75  A    between atoms: _187  and  _188
REMARK   76  A    between atoms: _187  and  _190
REMARK   77  A    between atoms: _190  and  _191
REMARK   78  A    between atoms: _194  and  _196
REMARK   79  A    between atoms: _196  and  _197
REMARK   80  A    between atoms: _196  and  _199
REMARK   81  A    between atoms: _199  and  _200
REMARK   82  A    between atoms: _205  and  _207
REMARK   83  A    between atoms: _207  and  _208
REMARK   84  A    between atoms: _207  and  _210
REMARK   85  A    between atoms: _213  and  _215
REMARK   86  A    between atoms: _215  and  _216
REMARK   87  A    between atoms: _215  and  _218
REMARK   88  A    between atoms: _218  and  _219
REMARK   89  A    between atoms: _222  and  _224
REMARK   90  A    between atoms: _224  and  _225
REMARK   91  A    between atoms: _224  and  _227
REMARK   92  A    between atoms: _227  and  _228
REMARK   93  A    between atoms: _231  and  _233
REMARK   94  A    between atoms: _233  and  _234
REMARK   95  A    between atoms: _233  and  _236
REMARK   96  A    between atoms: _236  and  _237
REMARK   97  A    between atoms: _243  and  _245
REMARK   98  A    between atoms: _245  and  _246
REMARK   99  A    between atoms: _245  and  _248
REMARK  100  A    between atoms: _248  and  _249
REMARK  101  A    between atoms: _254  and  _256
REMARK  102  A    between atoms: _256  and  _257
REMARK  103  A    between atoms: _256  and  _259
REMARK  104  A    between atoms: _259  and  _260
REMARK  105  A    between atoms: _270  and  _272
REMARK  106  A    between atoms: _272  and  _273
REMARK  107  A    between atoms: _272  and  _275
REMARK  108  A    between atoms: _275  and  _276
REMARK  109  A    between atoms: _281  and  _282
REMARK  110  A    between atoms: _284  and  _286
REMARK  111  A    between atoms: _286  and  _287
REMARK  112  A    between atoms: _286  and  _289
REMARK  113  A    between atoms: _289  and  _290
REMARK  114  A    between atoms: _295  and  _297
REMARK  115  A    between atoms: _297  and  _298
REMARK  116  A    between atoms: _297  and  _300
REMARK  117  A    between atoms: _300  and  _301
REMARK  118  A    between atoms: _306  and  _308
REMARK  119  A    between atoms: _308  and  _309
REMARK  120  A    between atoms: _308  and  _311
REMARK  121  A    between atoms: _311  and  _312
REMARK  122  A    between atoms: _312  and  _313
REMARK  123  A    between atoms: _318  and  _320
REMARK  124  A    between atoms: _320  and  _321
REMARK  125  A    between atoms: _320  and  _323
REMARK  126  A    between atoms: _323  and  _324
REMARK  127  A    between atoms: _329  and  _330
REMARK  128  A    between atoms: _332  and  _334
REMARK  129  A    between atoms: _334  and  _335
REMARK  130  A    between atoms: _334  and  _337
REMARK  131  A    between atoms: _337  and  _338
REMARK  132  A    between atoms: _341  and  _343
REMARK  133  A    between atoms: _343  and  _344
REMARK  134  A    between atoms: _347  and  _349
REMARK  135  A    between atoms: _349  and  _350
REMARK  136  A    between atoms: _349  and  _352
REMARK  137  A    between atoms: _352  and  _353
REMARK  138  A    between atoms: _355  and  _357
REMARK  139  A    between atoms: _357  and  _358
REMARK  140  A    between atoms: _357  and  _360
REMARK  141  A    between atoms: _360  and  _361
REMARK  142  A    between atoms: _361  and  _362
REMARK  143  A    between atoms: _364  and  _366
REMARK  144  A    between atoms: _366  and  _367
REMARK  145  A    between atoms: _366  and  _369
REMARK  146  A    between atoms: _369  and  _370
REMARK  147  A    between atoms: _370  and  _371
REMARK  148  A    between atoms: _376  and  _378
REMARK  149  A    between atoms: _378  and  _379
REMARK  150  A    between atoms: _378  and  _381
REMARK  151  A    between atoms: _381  and  _382
REMARK  152  A    between atoms: _384  and  _386
REMARK  153  A    between atoms: _386  and  _387
REMARK  154  A    between atoms: _386  and  _389
REMARK  155  A    between atoms: _389  and  _390
REMARK  156  A    between atoms: _395  and  _396
REMARK  157  A    between atoms: _398  and  _400
REMARK  158  A    between atoms: _400  and  _401
REMARK  159  A    between atoms: _400  and  _403
REMARK  160  A    between atoms: _403  and  _404
REMARK  161  A    between atoms: _406  and  _408
REMARK  162  A    between atoms: _408  and  _409
REMARK  163  A    between atoms: _412  and  _414
REMARK  164  A    between atoms: _414  and  _415
REMARK  165  A    between atoms: _414  and  _417
REMARK  166  A    between atoms: _417  and  _418
REMARK  167  A    between atoms: _428  and  _430
REMARK  168  A    between atoms: _430  and  _431
REMARK  169  A    between atoms: _430  and  _433
REMARK  170  A    between atoms: _433  and  _434
REMARK  171  A    between atoms: _434  and  _435
REMARK  172  A    between atoms: _440  and  _442
REMARK  173  A    between atoms: _442  and  _443
REMARK  174  A    between atoms: _442  and  _445
REMARK  175  A    between atoms: _448  and  _450
REMARK  176  A    between atoms: _450  and  _451
REMARK  177  A    between atoms: _450  and  _453
REMARK  178  A    between atoms: _453  and  _454
REMARK  179  A    between atoms: _457  and  _459
REMARK  180  A    between atoms: _459  and  _460
REMARK  181  A    between atoms: _459  and  _462
REMARK  182  A    between atoms: _462  and  _463
REMARK  183  A    between atoms: _468  and  _469
REMARK  184  A    between atoms: _471  and  _473
REMARK  185  A    between atoms: _473  and  _474
REMARK  186  A    between atoms: _473  and  _476
REMARK  187  A    between atoms: _479  and  _481
REMARK  188  A    between atoms: _481  and  _482
REMARK  189  A    between atoms: _481  and  _484
REMARK  190  A    between atoms: _484  and  _485
REMARK  191  A    between atoms: _491  and  _493
REMARK  192  A    between atoms: _493  and  _494
REMARK  193  A    between atoms: _493  and  _496
REMARK  194  A    between atoms: _496  and  _497
REMARK  195  A    between atoms: _497  and  _498
REMARK  196  A    between atoms: _503  and  _505
REMARK  197  A    between atoms: _505  and  _506
REMARK  198  A    between atoms: _505  and  _508
REMARK  199  A    between atoms: _508  and  _509
REMARK  200  A    between atoms: _511  and  _513
REMARK  201  A    between atoms: _513  and  _514
REMARK  202  A    between atoms: _513  and  _516
REMARK  203  A    between atoms: _516  and  _517
REMARK  204  A    between atoms: _522  and  _524
REMARK  205  A    between atoms: _524  and  _525
REMARK  206  A    between atoms: _524  and  _527
REMARK  207  A    between atoms: _527  and  _528
REMARK  208  A    between atoms: _538  and  _540
REMARK  209  A    between atoms: _540  and  _541
REMARK  210  A    between atoms: _540  and  _543
REMARK  211  A    between atoms: _543  and  _544
REMARK  212  A    between atoms: _547  and  _549
REMARK  213  A    between atoms: _549  and  _550
REMARK  214  A    between atoms: _549  and  _552
REMARK  215  A    between atoms: _552  and  _553
REMARK  216  A    between atoms: _558  and  _559
REMARK  217  A    between atoms: _561  and  _563
REMARK  218  A    between atoms: _563  and  _564
REMARK  219  A    between atoms: _563  and  _566
REMARK  220  A    between atoms: _566  and  _567
REMARK  221  A    between atoms: _570  and  _572
REMARK  222  A    between atoms: _572  and  _573
REMARK  223  A    between atoms: _572  and  _575
REMARK  224  A    between atoms: _575  and  _576
REMARK  225  A    between atoms: _576  and  _577
REMARK  226  A    between atoms: _580  and  _582
REMARK  227  A    between atoms: _582  and  _583
REMARK  228  A    between atoms: _582  and  _585
REMARK  229  A    between atoms: _585  and  _586
REMARK  230  A    between atoms: _591  and  _593
REMARK  231  A    between atoms: _593  and  _594
REMARK  232  A    between atoms: _596  and  _598
REMARK  233  A    between atoms: _598  and  _599
REMARK  234  A    between atoms: _598  and  _601
REMARK  235  A    between atoms: _601  and  _602
REMARK  236  A    between atoms: _602  and  _603
REMARK  237  A    between atoms: _605  and  _607
REMARK  238  A    between atoms: _607  and  _608
REMARK  239  A    between atoms: _607  and  _610
REMARK  240  A    between atoms: _610  and  _611
REMARK  241  A    between atoms: _614  and  _616
REMARK  242  A    between atoms: _616  and  _617
REMARK  243  A    between atoms: _616  and  _619
REMARK  244  A    between atoms: _619  and  _620
REMARK  245  A    between atoms: _630  and  _632
REMARK  246  A    between atoms: _632  and  _633
REMARK  247  A    between atoms: _632  and  _635
REMARK  248  A    between atoms: _635  and  _636
REMARK  249  A    between atoms: _638  and  _640
REMARK  250  A    between atoms: _640  and  _641
REMARK  251  A    between atoms: _640  and  _643
REMARK  252  A    between atoms: _643  and  _644
REMARK  253  A    between atoms: _649  and  _651
REMARK  254  A    between atoms: _651  and  _652
REMARK  255  A    between atoms: _651  and  _654
REMARK  256  A    between atoms: _654  and  _655
REMARK  257  A    between atoms: _661  and  _663
REMARK  258  A    between atoms: _663  and  _664
REMARK  259  A    between atoms: _663  and  _666
REMARK  260  A    between atoms: _666  and  _667
REMARK  261  A    between atoms: _667  and  _668
REMARK  262  A    between atoms: _671  and  _673
REMARK  263  A    between atoms: _673  and  _674
REMARK  264  A    between atoms: _673  and  _676
REMARK  265  A    between atoms: _676  and  _677
REMARK  266  A    between atoms: _687  and  _689
REMARK  267  A    between atoms: _689  and  _690
REMARK  268  A    between atoms: _689  and  _692
REMARK  269  A    between atoms: _692  and  _693
REMARK  270  A    between atoms: _696  and  _698
REMARK  271  A    between atoms: _698  and  _699
REMARK  272  A    between atoms: _698  and  _701
REMARK  273  A    between atoms: _701  and  _702
REMARK  274  A    between atoms: _704  and  _706
REMARK  275  A    between atoms: _706  and  _707
REMARK  276  A    between atoms: _706  and  _709
REMARK  277  A    between atoms: _709  and  _710
REMARK  278  A    between atoms: _712  and  _714
REMARK  279  A    between atoms: _714  and  _715
REMARK  280  A    between atoms: _714  and  _717
REMARK  281  A    between atoms: _717  and  _718
REMARK                            x       y       z     vdW  Elec       q    Type
REMARK                         _______ _______ _______ _____ _____    ______ ____
ROOT
ATOM      1  O   HOH     1       7.934   3.712  42.696  0.00  0.00    +0.000 OA
ENDROOT
TORSDOF 0
REMARK  Name = ../refined-set-2016/3f5k/3f5k_pocket.pdb
REMARK  281 active torsions:
REMARK  status: ('A' for Active; 'I' for Inactive)
REMARK    1  A    between atoms: _1  and  _3
REMARK    2  A    between atoms: _3  and  _4
REMARK    3  A    between atoms: _3  and  _6
REMARK    4  A    between atoms: _9  and  _11
REMARK    5  A    between atoms: _11  and  _12
REMARK    6  A    between atoms: _11  and  _14
REMARK    7  A    between atoms: _14  and  _15
REMARK    8  A    between atoms: _18  and  _20
REMARK    9  A    between atoms: _20  and  _21
REMARK   10  A    between atoms: _20  and  _23
REMARK   11  A    between atoms: _23  and  _24
REMARK   12  A    between atoms: _26  and  _28
REMARK   13  A    between atoms: _28  and  _29
REMARK   14  A    between atoms: _32  and  _34
REMARK   15  A    between atoms: _34  and  _35
REMARK   16  A    between atoms: _34  and  _37
REMARK   17  A    between atoms: _37  and  _38
REMARK   18  A    between atoms: _38  and  _39
REMARK   19  A    between atoms: _44  and  _46
REMARK   20  A    between atoms: _46  and  _47
REMARK   21  A    between atoms: _46  and  _49
REMARK   22  A    between atoms: _49  and  _50
REMARK   23  A    between atoms: _50  and  _51
REMARK   24  A    between atoms: _51  and  _52
REMARK   25  A    between atoms: _61  and  _63
REMARK   26  A    between atoms: _63  and  _64
REMARK   27  A    between atoms: _63  and  _66
REMARK   28  A    between atoms: _66  and  _67
REMARK   29  A    between atoms: _72  and  _74
REMARK   30  A    between atoms: _74  and  _75
REMARK   31  A    between atoms: _74  and  _77
REMARK   32  A    between atoms: _77  and  _78
REMARK   33  A    between atoms: _83  and  _85
REMARK   34  A    between atoms: _85  and  _86
REMARK   35  A    between atoms: _85  and  _88
REMARK   36  A    between atoms: _88  and  _89
REMARK   37  A    between atoms: _94  and  _95
REMARK   38  A    between atoms: _97  and  _99
REMARK   39  A    between atoms: _99  and  _100
REMARK   40  A    between atoms: _99  and  _102
REMARK   41  A    between atoms: _102  and  _103
REMARK   42  A    between atoms: _108  and  _110
REMARK   43  A    between atoms: _110  and  _111
REMARK   44  A    between atoms: _110  and  _113
REMARK   45  A    between atoms: _113  and  _114
REMARK   46  A    between atoms: _114  and  _115
REMARK   47  A    between atoms: _120  and  _122
REMARK   48  A    between atoms: _122  and  _123
REMARK   49  A    between atoms: _122  and  _125
REMARK   50  A    between atoms: _125  and  _126
REMARK   51  A    between atoms: _126  and  _127
REMARK   52  A    between atoms: _127  and  _128
REMARK   53  A    between atoms: _137  and  _139
REMARK   54  A    between atoms: _139  and  _140
REMARK   55  A    between atoms: _139  and  _142
REMARK   56  A    between atoms: _142  and  _143
REMARK   57  A    between atoms: _146  and  _148
REMARK   58  A    between atoms: _148  and  _149
REMARK   59  A    between atoms: _148  and  _151
REMARK   60  A    between atoms: _151  and  _152
REMARK   61  A    between atoms: _155  and  _157
REMARK   62  A    between atoms: _157  and  _158
REMARK   63  A    between atoms: _157  and  _160
REMARK   64  A    between atoms: _160  and  _161
REMARK   65  A    between atoms: _164  and  _166
REMARK   66  A    between atoms: _166  and  _167
REMARK   67  A    between atoms: _166  and  _169
REMARK   68  A    between atoms: _169  and  _170
REMARK   69  A    between atoms: _173  and  _175
REMARK   70  A    between atoms: _175  and  _176
REMARK   71  A    between atoms: _175  and  _178
REMARK   72  A    between atoms: _178  and  _179
REMARK   73  A    between atoms: _179  and  _180
REMARK   74  A    between atoms: _185  and  _187
REMARK   75  A    between atoms: _187  and  _188
REMARK   76  A    between atoms: _187  and  _190
REMARK   77  A    between atoms: _190  and  _191
REMARK   78  A    between atoms: _194  and  _196
REMARK   79  A    between atoms: _196  and  _197
REMARK   80  A    between atoms: _196  and  _199
REMARK   81  A    between atoms: _199  and  _200
REMARK   82  A    between atoms: _205  and  _207
REMARK   83  A    between atoms: _207  and  _208
REMARK   84  A    between atoms: _207  and  _210
REMARK   85  A    between atoms: _213  and  _215
REMARK   86  A    between atoms: _215  and  _216
REMARK   87  A    between atoms: _215  and  _218
REMARK   88  A    between atoms: _218  and  _219
REMARK   89  A    between atoms: _222  and  _224
REMARK   90  A    between atoms: _224  and  _225
REMARK   91  A    between atoms: _224  and  _227
REMARK   92  A    between atoms: _227  and  _228
REMARK   93  A    between atoms: _231  and  _233
REMARK   94  A    between atoms: _233  and  _234
REMARK   95  A    between atoms: _233  and  _236
REMARK   96  A    between atoms: _236  and  _237
REMARK   97  A    between atoms: _243  and  _245
REMARK   98  A    between atoms: _245  and  _246
REMARK   99  A    between atoms: _245  and  _248
REMARK  100  A    between atoms: _248  and  _249
REMARK  101  A    between atoms: _254  and  _256
REMARK  102  A    between atoms: _256  and  _257
REMARK  103  A    between atoms: _256  and  _259
REMARK  104  A    between atoms: _259  and  _260
REMARK  105  A    between atoms: _270  and  _272
REMARK  106  A    between atoms: _272  and  _273
REMARK  107  A    between atoms: _272  and  _275
REMARK  108  A    between atoms: _275  and  _276
REMARK  109  A    between atoms: _281  and  _282
REMARK  110  A    between atoms: _284  and  _286
REMARK  111  A    between atoms: _286  and  _287
REMARK  112  A    between atoms: _286  and  _289
REMARK  113  A    between atoms: _289  and  _290
REMARK  114  A    between atoms: _295  and  _297
REMARK  115  A    between atoms: _297  and  _298
REMARK  116  A    between atoms: _297  and  _300
REMARK  117  A    between atoms: _300  and  _301
REMARK  118  A    between atoms: _306  and  _308
REMARK  119  A    between atoms: _308  and  _309
REMARK  120  A    between atoms: _308  and  _311
REMARK  121  A    between atoms: _311  and  _312
REMARK  122  A    between atoms: _312  and  _313
REMARK  123  A    between atoms: _318  and  _320
REMARK  124  A    between atoms: _320  and  _321
REMARK  125  A    between atoms: _320  and  _323
REMARK  126  A    between atoms: _323  and  _324
REMARK  127  A    between atoms: _329  and  _330
REMARK  128  A    between atoms: _332  and  _334
REMARK  129  A    between atoms: _334  and  _335
REMARK  130  A    between atoms: _334  and  _337
REMARK  131  A    between atoms: _337  and  _338
REMARK  132  A    between atoms: _341  and  _343
REMARK  133  A    between atoms: _343  and  _344
REMARK  134  A    between atoms: _347  and  _349
REMARK  135  A    between atoms: _349  and  _350
REMARK  136  A    between atoms: _349  and  _352
REMARK  137  A    between atoms: _352  and  _353
REMARK  138  A    between atoms: _355  and  _357
REMARK  139  A    between atoms: _357  and  _358
REMARK  140  A    between atoms: _357  and  _360
REMARK  141  A    between atoms: _360  and  _361
REMARK  142  A    between atoms: _361  and  _362
REMARK  143  A    between atoms: _364  and  _366
REMARK  144  A    between atoms: _366  and  _367
REMARK  145  A    between atoms: _366  and  _369
REMARK  146  A    between atoms: _369  and  _370
REMARK  147  A    between atoms: _370  and  _371
REMARK  148  A    between atoms: _376  and  _378
REMARK  149  A    between atoms: _378  and  _379
REMARK  150  A    between atoms: _378  and  _381
REMARK  151  A    between atoms: _381  and  _382
REMARK  152  A    between atoms: _384  and  _386
REMARK  153  A    between atoms: _386  and  _387
REMARK  154  A    between atoms: _386  and  _389
REMARK  155  A    between atoms: _389  and  _390
REMARK  156  A    between atoms: _395  and  _396
REMARK  157  A    between atoms: _398  and  _400
REMARK  158  A    between atoms: _400  and  _401
REMARK  159  A    between atoms: _400  and  _403
REMARK  160  A    between atoms: _403  and  _404
REMARK  161  A    between atoms: _406  and  _408
REMARK  162  A    between atoms: _408  and  _409
REMARK  163  A    between atoms: _412  and  _414
REMARK  164  A    between atoms: _414  and  _415
REMARK  165  A    between atoms: _414  and  _417
REMARK  166  A    between atoms: _417  and  _418
REMARK  167  A    between atoms: _428  and  _430
REMARK  168  A    between atoms: _430  and  _431
REMARK  169  A    between atoms: _430  and  _433
REMARK  170  A    between atoms: _433  and  _434
REMARK  171  A    between atoms: _434  and  _435
REMARK  172  A    between atoms: _440  and  _442
REMARK  173  A    between atoms: _442  and  _443
REMARK  174  A    between atoms: _442  and  _445
REMARK  175  A    between atoms: _448  and  _450
REMARK  176  A    between atoms: _450  and  _451
REMARK  177  A    between atoms: _450  and  _453
REMARK  178  A    between atoms: _453  and  _454
REMARK  179  A    between atoms: _457  and  _459
REMARK  180  A    between atoms: _459  and  _460
REMARK  181  A    between atoms: _459  and  _462
REMARK  182  A    between atoms: _462  and  _463
REMARK  183  A    between atoms: _468  and  _469
REMARK  184  A    between atoms: _471  and  _473
REMARK  185  A    between atoms: _473  and  _474
REMARK  186  A    between atoms: _473  and  _476
REMARK  187  A    between atoms: _479  and  _481
REMARK  188  A    between atoms: _481  and  _482
REMARK  189  A    between atoms: _481  and  _484
REMARK  190  A    between atoms: _484  and  _485
REMARK  191  A    between atoms: _491  and  _493
REMARK  192  A    between atoms: _493  and  _494
REMARK  193  A    between atoms: _493  and  _496
REMARK  194  A    between atoms: _496  and  _497
REMARK  195  A    between atoms: _497  and  _498
REMARK  196  A    between atoms: _503  and  _505
REMARK  197  A    between atoms: _505  and  _506
REMARK  198  A    between atoms: _505  and  _508
REMARK  199  A    between atoms: _508  and  _509
REMARK  200  A    between atoms: _511  and  _513
REMARK  201  A    between atoms: _513  and  _514
REMARK  202  A    between atoms: _513  and  _516
REMARK  203  A    between atoms: _516  and  _517
REMARK  204  A    between atoms: _522  and  _524
REMARK  205  A    between atoms: _524  and  _525
REMARK  206  A    between atoms: _524  and  _527
REMARK  207  A    between atoms: _527  and  _528
REMARK  208  A    between atoms: _538  and  _540
REMARK  209  A    between atoms: _540  and  _541
REMARK  210  A    between atoms: _540  and  _543
REMARK  211  A    between atoms: _543  and  _544
REMARK  212  A    between atoms: _547  and  _549
REMARK  213  A    between atoms: _549  and  _550
REMARK  214  A    between atoms: _549  and  _552
REMARK  215  A    between atoms: _552  and  _553
REMARK  216  A    between atoms: _558  and  _559
REMARK  217  A    between atoms: _561  and  _563
REMARK  218  A    between atoms: _563  and  _564
REMARK  219  A    between atoms: _563  and  _566
REMARK  220  A    between atoms: _566  and  _567
REMARK  221  A    between atoms: _570  and  _572
REMARK  222  A    between atoms: _572  and  _573
REMARK  223  A    between atoms: _572  and  _575
REMARK  224  A    between atoms: _575  and  _576
REMARK  225  A    between atoms: _576  and  _577
REMARK  226  A    between atoms: _580  and  _582
REMARK  227  A    between atoms: _582  and  _583
REMARK  228  A    between atoms: _582  and  _585
REMARK  229  A    between atoms: _585  and  _586
REMARK  230  A    between atoms: _591  and  _593
REMARK  231  A    between atoms: _593  and  _594
REMARK  232  A    between atoms: _596  and  _598
REMARK  233  A    between atoms: _598  and  _599
REMARK  234  A    between atoms: _598  and  _601
REMARK  235  A    between atoms: _601  and  _602
REMARK  236  A    between atoms: _602  and  _603
REMARK  237  A    between atoms: _605  and  _607
REMARK  238  A    between atoms: _607  and  _608
REMARK  239  A    between atoms: _607  and  _610
REMARK  240  A    between atoms: _610  and  _611
REMARK  241  A    between atoms: _614  and  _616
REMARK  242  A    between atoms: _616  and  _617
REMARK  243  A    between atoms: _616  and  _619
REMARK  244  A    between atoms: _619  and  _620
REMARK  245  A    between atoms: _630  and  _632
REMARK  246  A    between atoms: _632  and  _633
REMARK  247  A    between atoms: _632  and  _635
REMARK  248  A    between atoms: _635  and  _636
REMARK  249  A    between atoms: _638  and  _640
REMARK  250  A    between atoms: _640  and  _641
REMARK  251  A    between atoms: _640  and  _643
REMARK  252  A    between atoms: _643  and  _644
REMARK  253  A    between atoms: _649  and  _651
REMARK  254  A    between atoms: _651  and  _652
REMARK  255  A    between atoms: _651  and  _654
REMARK  256  A    between atoms: _654  and  _655
REMARK  257  A    between atoms: _661  and  _663
REMARK  258  A    between atoms: _663  and  _664
REMARK  259  A    between atoms: _663  and  _666
REMARK  260  A    between atoms: _666  and  _667
REMARK  261  A    between atoms: _667  and  _668
REMARK  262  A    between atoms: _671  and  _673
REMARK  263  A    between atoms: _673  and  _674
REMARK  264  A    between atoms: _673  and  _676
REMARK  265  A    between atoms: _676  and  _677
REMARK  266  A    between atoms: _687  and  _689
REMARK  267  A    between atoms: _689  and  _690
REMARK  268  A    between atoms: _689  and  _692
REMARK  269  A    between atoms: _692  and  _693
REMARK  270  A    between atoms: _696  and  _698
REMARK  271  A    between atoms: _698  and  _699
REMARK  272  A    between atoms: _698  and  _701
REMARK  273  A    between atoms: _701  and  _702
REMARK  274  A    between atoms: _704  and  _706
REMARK  275  A    between atoms: _706  and  _707
REMARK  276  A    between atoms: _706  and  _709
REMARK  277  A    between atoms: _709  and  _710
REMARK  278  A    between atoms: _712  and  _714
REMARK  279  A    between atoms: _714  and  _715
REMARK  280  A    between atoms: _714  and  _717
REMARK  281  A    between atoms: _717  and  _718
REMARK                            x       y       z     vdW  Elec       q    Type
REMARK                         _______ _______ _______ _____ _____    ______ ____
ROOT
ATOM      1  O   HOH     1      11.232  -0.724  29.966  0.00  0.00    +0.000 OA
ENDROOT
TORSDOF 0
REMARK  Name = ../refined-set-2016/3f5k/3f5k_pocket.pdb
REMARK  281 active torsions:
REMARK  status: ('A' for Active; 'I' for Inactive)
REMARK    1  A    between atoms: _1  and  _3
REMARK    2  A    between atoms: _3  and  _4
REMARK    3  A    between atoms: _3  and  _6
REMARK    4  A    between atoms: _9  and  _11
REMARK    5  A    between atoms: _11  and  _12
REMARK    6  A    between atoms: _11  and  _14
REMARK    7  A    between atoms: _14  and  _15
REMARK    8  A    between atoms: _18  and  _20
REMARK    9  A    between atoms: _20  and  _21
REMARK   10  A    between atoms: _20  and  _23
REMARK   11  A    between atoms: _23  and  _24
REMARK   12  A    between atoms: _26  and  _28
REMARK   13  A    between atoms: _28  and  _29
REMARK   14  A    between atoms: _32  and  _34
REMARK   15  A    between atoms: _34  and  _35
REMARK   16  A    between atoms: _34  and  _37
REMARK   17  A    between atoms: _37  and  _38
REMARK   18  A    between atoms: _38  and  _39
REMARK   19  A    between atoms: _44  and  _46
REMARK   20  A    between atoms: _46  and  _47
REMARK   21  A    between atoms: _46  and  _49
REMARK   22  A    between atoms: _49  and  _50
REMARK   23  A    between atoms: _50  and  _51
REMARK   24  A    between atoms: _51  and  _52
REMARK   25  A    between atoms: _61  and  _63
REMARK   26  A    between atoms: _63  and  _64
REMARK   27  A    between atoms: _63  and  _66
REMARK   28  A    between atoms: _66  and  _67
REMARK   29  A    between atoms: _72  and  _74
REMARK   30  A    between atoms: _74  and  _75
REMARK   31  A    between atoms: _74  and  _77
REMARK   32  A    between atoms: _77  and  _78
REMARK   33  A    between atoms: _83  and  _85
REMARK   34  A    between atoms: _85  and  _86
REMARK   35  A    between atoms: _85  and  _88
REMARK   36  A    between atoms: _88  and  _89
REMARK   37  A    between atoms: _94  and  _95
REMARK   38  A    between atoms: _97  and  _99
REMARK   39  A    between atoms: _99  and  _100
REMARK   40  A    between atoms: _99  and  _102
REMARK   41  A    between atoms: _102  and  _103
REMARK   42  A    between atoms: _108  and  _110
REMARK   43  A    between atoms: _110  and  _111
REMARK   44  A    between atoms: _110  and  _113
REMARK   45  A    between atoms: _113  and  _114
REMARK   46  A    between atoms: _114  and  _115
REMARK   47  A    between atoms: _120  and  _122
REMARK   48  A    between atoms: _122  and  _123
REMARK   49  A    between atoms: _122  and  _125
REMARK   50  A    between atoms: _125  and  _126
REMARK   51  A    between atoms: _126  and  _127
REMARK   52  A    between atoms: _127  and  _128
REMARK   53  A    between atoms: _137  and  _139
REMARK   54  A    between atoms: _139  and  _140
REMARK   55  A    between atoms: _139  and  _142
REMARK   56  A    between atoms: _142  and  _143
REMARK   57  A    between atoms: _146  and  _148
REMARK   58  A    between atoms: _148  and  _149
REMARK   59  A    between atoms: _148  and  _151
REMARK   60  A    between atoms: _151  and  _152
REMARK   61  A    between atoms: _155  and  _157
REMARK   62  A    between atoms: _157  and  _158
REMARK   63  A    between atoms: _157  and  _160
REMARK   64  A    between atoms: _160  and  _161
REMARK   65  A    between atoms: _164  and  _166
REMARK   66  A    between atoms: _166  and  _167
REMARK   67  A    between atoms: _166  and  _169
REMARK   68  A    between atoms: _169  and  _170
REMARK   69  A    between atoms: _173  and  _175
REMARK   70  A    between atoms: _175  and  _176
REMARK   71  A    between atoms: _175  and  _178
REMARK   72  A    between atoms: _178  and  _179
REMARK   73  A    between atoms: _179  and  _180
REMARK   74  A    between atoms: _185  and  _187
REMARK   75  A    between atoms: _187  and  _188
REMARK   76  A    between atoms: _187  and  _190
REMARK   77  A    between atoms: _190  and  _191
REMARK   78  A    between atoms: _194  and  _196
REMARK   79  A    between atoms: _196  and  _197
REMARK   80  A    between atoms: _196  and  _199
REMARK   81  A    between atoms: _199  and  _200
REMARK   82  A    between atoms: _205  and  _207
REMARK   83  A    between atoms: _207  and  _208
REMARK   84  A    between atoms: _207  and  _210
REMARK   85  A    between atoms: _213  and  _215
REMARK   86  A    between atoms: _215  and  _216
REMARK   87  A    between atoms: _215  and  _218
REMARK   88  A    between atoms: _218  and  _219
REMARK   89  A    between atoms: _222  and  _224
REMARK   90  A    between atoms: _224  and  _225
REMARK   91  A    between atoms: _224  and  _227
REMARK   92  A    between atoms: _227  and  _228
REMARK   93  A    between atoms: _231  and  _233
REMARK   94  A    between atoms: _233  and  _234
REMARK   95  A    between atoms: _233  and  _236
REMARK   96  A    between atoms: _236  and  _237
REMARK   97  A    between atoms: _243  and  _245
REMARK   98  A    between atoms: _245  and  _246
REMARK   99  A    between atoms: _245  and  _248
REMARK  100  A    between atoms: _248  and  _249
REMARK  101  A    between atoms: _254  and  _256
REMARK  102  A    between atoms: _256  and  _257
REMARK  103  A    between atoms: _256  and  _259
REMARK  104  A    between atoms: _259  and  _260
REMARK  105  A    between atoms: _270  and  _272
REMARK  106  A    between atoms: _272  and  _273
REMARK  107  A    between atoms: _272  and  _275
REMARK  108  A    between atoms: _275  and  _276
REMARK  109  A    between atoms: _281  and  _282
REMARK  110  A    between atoms: _284  and  _286
REMARK  111  A    between atoms: _286  and  _287
REMARK  112  A    between atoms: _286  and  _289
REMARK  113  A    between atoms: _289  and  _290
REMARK  114  A    between atoms: _295  and  _297
REMARK  115  A    between atoms: _297  and  _298
REMARK  116  A    between atoms: _297  and  _300
REMARK  117  A    between atoms: _300  and  _301
REMARK  118  A    between atoms: _306  and  _308
REMARK  119  A    between atoms: _308  and  _309
REMARK  120  A    between atoms: _308  and  _311
REMARK  121  A    between atoms: _311  and  _312
REMARK  122  A    between atoms: _312  and  _313
REMARK  123  A    between atoms: _318  and  _320
REMARK  124  A    between atoms: _320  and  _321
REMARK  125  A    between atoms: _320  and  _323
REMARK  126  A    between atoms: _323  and  _324
REMARK  127  A    between atoms: _329  and  _330
REMARK  128  A    between atoms: _332  and  _334
REMARK  129  A    between atoms: _334  and  _335
REMARK  130  A    between atoms: _334  and  _337
REMARK  131  A    between atoms: _337  and  _338
REMARK  132  A    between atoms: _341  and  _343
REMARK  133  A    between atoms: _343  and  _344
REMARK  134  A    between atoms: _347  and  _349
REMARK  135  A    between atoms: _349  and  _350
REMARK  136  A    between atoms: _349  and  _352
REMARK  137  A    between atoms: _352  and  _353
REMARK  138  A    between atoms: _355  and  _357
REMARK  139  A    between atoms: _357  and  _358
REMARK  140  A    between atoms: _357  and  _360
REMARK  141  A    between atoms: _360  and  _361
REMARK  142  A    between atoms: _361  and  _362
REMARK  143  A    between atoms: _364  and  _366
REMARK  144  A    between atoms: _366  and  _367
REMARK  145  A    between atoms: _366  and  _369
REMARK  146  A    between atoms: _369  and  _370
REMARK  147  A    between atoms: _370  and  _371
REMARK  148  A    between atoms: _376  and  _378
REMARK  149  A    between atoms: _378  and  _379
REMARK  150  A    between atoms: _378  and  _381
REMARK  151  A    between atoms: _381  and  _382
REMARK  152  A    between atoms: _384  and  _386
REMARK  153  A    between atoms: _386  and  _387
REMARK  154  A    between atoms: _386  and  _389
REMARK  155  A    between atoms: _389  and  _390
REMARK  156  A    between atoms: _395  and  _396
REMARK  157  A    between atoms: _398  and  _400
REMARK  158  A    between atoms: _400  and  _401
REMARK  159  A    between atoms: _400  and  _403
REMARK  160  A    between atoms: _403  and  _404
REMARK  161  A    between atoms: _406  and  _408
REMARK  162  A    between atoms: _408  and  _409
REMARK  163  A    between atoms: _412  and  _414
REMARK  164  A    between atoms: _414  and  _415
REMARK  165  A    between atoms: _414  and  _417
REMARK  166  A    between atoms: _417  and  _418
REMARK  167  A    between atoms: _428  and  _430
REMARK  168  A    between atoms: _430  and  _431
REMARK  169  A    between atoms: _430  and  _433
REMARK  170  A    between atoms: _433  and  _434
REMARK  171  A    between atoms: _434  and  _435
REMARK  172  A    between atoms: _440  and  _442
REMARK  173  A    between atoms: _442  and  _443
REMARK  174  A    between atoms: _442  and  _445
REMARK  175  A    between atoms: _448  and  _450
REMARK  176  A    between atoms: _450  and  _451
REMARK  177  A    between atoms: _450  and  _453
REMARK  178  A    between atoms: _453  and  _454
REMARK  179  A    between atoms: _457  and  _459
REMARK  180  A    between atoms: _459  and  _460
REMARK  181  A    between atoms: _459  and  _462
REMARK  182  A    between atoms: _462  and  _463
REMARK  183  A    between atoms: _468  and  _469
REMARK  184  A    between atoms: _471  and  _473
REMARK  185  A    between atoms: _473  and  _474
REMARK  186  A    between atoms: _473  and  _476
REMARK  187  A    between atoms: _479  and  _481
REMARK  188  A    between atoms: _481  and  _482
REMARK  189  A    between atoms: _481  and  _484
REMARK  190  A    between atoms: _484  and  _485
REMARK  191  A    between atoms: _491  and  _493
REMARK  192  A    between atoms: _493  and  _494
REMARK  193  A    between atoms: _493  and  _496
REMARK  194  A    between atoms: _496  and  _497
REMARK  195  A    between atoms: _497  and  _498
REMARK  196  A    between atoms: _503  and  _505
REMARK  197  A    between atoms: _505  and  _506
REMARK  198  A    between atoms: _505  and  _508
REMARK  199  A    between atoms: _508  and  _509
REMARK  200  A    between atoms: _511  and  _513
REMARK  201  A    between atoms: _513  and  _514
REMARK  202  A    between atoms: _513  and  _516
REMARK  203  A    between atoms: _516  and  _517
REMARK  204  A    between atoms: _522  and  _524
REMARK  205  A    between atoms: _524  and  _525
REMARK  206  A    between atoms: _524  and  _527
REMARK  207  A    between atoms: _527  and  _528
REMARK  208  A    between atoms: _538  and  _540
REMARK  209  A    between atoms: _540  and  _541
REMARK  210  A    between atoms: _540  and  _543
REMARK  211  A    between atoms: _543  and  _544
REMARK  212  A    between atoms: _547  and  _549
REMARK  213  A    between atoms: _549  and  _550
REMARK  214  A    between atoms: _549  and  _552
REMARK  215  A    between atoms: _552  and  _553
REMARK  216  A    between atoms: _558  and  _559
REMARK  217  A    between atoms: _561  and  _563
REMARK  218  A    between atoms: _563  and  _564
REMARK  219  A    between atoms: _563  and  _566
REMARK  220  A    between atoms: _566  and  _567
REMARK  221  A    between atoms: _570  and  _572
REMARK  222  A    between atoms: _572  and  _573
REMARK  223  A    between atoms: _572  and  _575
REMARK  224  A    between atoms: _575  and  _576
REMARK  225  A    between atoms: _576  and  _577
REMARK  226  A    between atoms: _580  and  _582
REMARK  227  A    between atoms: _582  and  _583
REMARK  228  A    between atoms: _582  and  _585
REMARK  229  A    between atoms: _585  and  _586
REMARK  230  A    between atoms: _591  and  _593
REMARK  231  A    between atoms: _593  and  _594
REMARK  232  A    between atoms: _596  and  _598
REMARK  233  A    between atoms: _598  and  _599
REMARK  234  A    between atoms: _598  and  _601
REMARK  235  A    between atoms: _601  and  _602
REMARK  236  A    between atoms: _602  and  _603
REMARK  237  A    between atoms: _605  and  _607
REMARK  238  A    between atoms: _607  and  _608
REMARK  239  A    between atoms: _607  and  _610
REMARK  240  A    between atoms: _610  and  _611
REMARK  241  A    between atoms: _614  and  _616
REMARK  242  A    between atoms: _616  and  _617
REMARK  243  A    between atoms: _616  and  _619
REMARK  244  A    between atoms: _619  and  _620
REMARK  245  A    between atoms: _630  and  _632
REMARK  246  A    between atoms: _632  and  _633
REMARK  247  A    between atoms: _632  and  _635
REMARK  248  A    between atoms: _635  and  _636
REMARK  249  A    between atoms: _638  and  _640
REMARK  250  A    between atoms: _640  and  _641
REMARK  251  A    between atoms: _640  and  _643
REMARK  252  A    between atoms: _643  and  _644
REMARK  253  A    between atoms: _649  and  _651
REMARK  254  A    between atoms: _651  and  _652
REMARK  255  A    between atoms: _651  and  _654
REMARK  256  A    between atoms: _654  and  _655
REMARK  257  A    between atoms: _661  and  _663
REMARK  258  A    between atoms: _663  and  _664
REMARK  259  A    between atoms: _663  and  _666
REMARK  260  A    between atoms: _666  and  _667
REMARK  261  A    between atoms: _667  and  _668
REMARK  262  A    between atoms: _671  and  _673
REMARK  263  A    between atoms: _673  and  _674
REMARK  264  A    between atoms: _673  and  _676
REMARK  265  A    between atoms: _676  and  _677
REMARK  266  A    between atoms: _687  and  _689
REMARK  267  A    between atoms: _689  and  _690
REMARK  268  A    between atoms: _689  and  _692
REMARK  269  A    between atoms: _692  and  _693
REMARK  270  A    between atoms: _696  and  _698
REMARK  271  A    between atoms: _698  and  _699
REMARK  272  A    between atoms: _698  and  _701
REMARK  273  A    between atoms: _701  and  _702
REMARK  274  A    between atoms: _704  and  _706
REMARK  275  A    between atoms: _706  and  _707
REMARK  276  A    between atoms: _706  and  _709
REMARK  277  A    between atoms: _709  and  _710
REMARK  278  A    between atoms: _712  and  _714
REMARK  279  A    between atoms: _714  and  _715
REMARK  280  A    between atoms: _714  and  _717
REMARK  281  A    between atoms: _717  and  _718
REMARK                            x       y       z     vdW  Elec       q    Type
REMARK                         _______ _______ _______ _____ _____    ______ ____
ROOT
ATOM      1  O   HOH     1      -2.647  -1.818  37.142  0.00  0.00    +0.000 OA
ENDROOT
TORSDOF 0
REMARK  Name = ../refined-set-2016/3f5k/3f5k_pocket.pdb
REMARK  281 active torsions:
REMARK  status: ('A' for Active; 'I' for Inactive)
REMARK    1  A    between atoms: _1  and  _3
REMARK    2  A    between atoms: _3  and  _4
REMARK    3  A    between atoms: _3  and  _6
REMARK    4  A    between atoms: _9  and  _11
REMARK    5  A    between atoms: _11  and  _12
REMARK    6  A    between atoms: _11  and  _14
REMARK    7  A    between atoms: _14  and  _15
REMARK    8  A    between atoms: _18  and  _20
REMARK    9  A    between atoms: _20  and  _21
REMARK   10  A    between atoms: _20  and  _23
REMARK   11  A    between atoms: _23  and  _24
REMARK   12  A    between atoms: _26  and  _28
REMARK   13  A    between atoms: _28  and  _29
REMARK   14  A    between atoms: _32  and  _34
REMARK   15  A    between atoms: _34  and  _35
REMARK   16  A    between atoms: _34  and  _37
REMARK   17  A    between atoms: _37  and  _38
REMARK   18  A    between atoms: _38  and  _39
REMARK   19  A    between atoms: _44  and  _46
REMARK   20  A    between atoms: _46  and  _47
REMARK   21  A    between atoms: _46  and  _49
REMARK   22  A    between atoms: _49  and  _50
REMARK   23  A    between atoms: _50  and  _51
REMARK   24  A    between atoms: _51  and  _52
REMARK   25  A    between atoms: _61  and  _63
REMARK   26  A    between atoms: _63  and  _64
REMARK   27  A    between atoms: _63  and  _66
REMARK   28  A    between atoms: _66  and  _67
REMARK   29  A    between atoms: _72  and  _74
REMARK   30  A    between atoms: _74  and  _75
REMARK   31  A    between atoms: _74  and  _77
REMARK   32  A    between atoms: _77  and  _78
REMARK   33  A    between atoms: _83  and  _85
REMARK   34  A    between atoms: _85  and  _86
REMARK   35  A    between atoms: _85  and  _88
REMARK   36  A    between atoms: _88  and  _89
REMARK   37  A    between atoms: _94  and  _95
REMARK   38  A    between atoms: _97  and  _99
REMARK   39  A    between atoms: _99  and  _100
REMARK   40  A    between atoms: _99  and  _102
REMARK   41  A    between atoms: _102  and  _103
REMARK   42  A    between atoms: _108  and  _110
REMARK   43  A    between atoms: _110  and  _111
REMARK   44  A    between atoms: _110  and  _113
REMARK   45  A    between atoms: _113  and  _114
REMARK   46  A    between atoms: _114  and  _115
REMARK   47  A    between atoms: _120  and  _122
REMARK   48  A    between atoms: _122  and  _123
REMARK   49  A    between atoms: _122  and  _125
REMARK   50  A    between atoms: _125  and  _126
REMARK   51  A    between atoms: _126  and  _127
REMARK   52  A    between atoms: _127  and  _128
REMARK   53  A    between atoms: _137  and  _139
REMARK   54  A    between atoms: _139  and  _140
REMARK   55  A    between atoms: _139  and  _142
REMARK   56  A    between atoms: _142  and  _143
REMARK   57  A    between atoms: _146  and  _148
REMARK   58  A    between atoms: _148  and  _149
REMARK   59  A    between atoms: _148  and  _151
REMARK   60  A    between atoms: _151  and  _152
REMARK   61  A    between atoms: _155  and  _157
REMARK   62  A    between atoms: _157  and  _158
REMARK   63  A    between atoms: _157  and  _160
REMARK   64  A    between atoms: _160  and  _161
REMARK   65  A    between atoms: _164  and  _166
REMARK   66  A    between atoms: _166  and  _167
REMARK   67  A    between atoms: _166  and  _169
REMARK   68  A    between atoms: _169  and  _170
REMARK   69  A    between atoms: _173  and  _175
REMARK   70  A    between atoms: _175  and  _176
REMARK   71  A    between atoms: _175  and  _178
REMARK   72  A    between atoms: _178  and  _179
REMARK   73  A    between atoms: _179  and  _180
REMARK   74  A    between atoms: _185  and  _187
REMARK   75  A    between atoms: _187  and  _188
REMARK   76  A    between atoms: _187  and  _190
REMARK   77  A    between atoms: _190  and  _191
REMARK   78  A    between atoms: _194  and  _196
REMARK   79  A    between atoms: _196  and  _197
REMARK   80  A    between atoms: _196  and  _199
REMARK   81  A    between atoms: _199  and  _200
REMARK   82  A    between atoms: _205  and  _207
REMARK   83  A    between atoms: _207  and  _208
REMARK   84  A    between atoms: _207  and  _210
REMARK   85  A    between atoms: _213  and  _215
REMARK   86  A    between atoms: _215  and  _216
REMARK   87  A    between atoms: _215  and  _218
REMARK   88  A    between atoms: _218  and  _219
REMARK   89  A    between atoms: _222  and  _224
REMARK   90  A    between atoms: _224  and  _225
REMARK   91  A    between atoms: _224  and  _227
REMARK   92  A    between atoms: _227  and  _228
REMARK   93  A    between atoms: _231  and  _233
REMARK   94  A    between atoms: _233  and  _234
REMARK   95  A    between atoms: _233  and  _236
REMARK   96  A    between atoms: _236  and  _237
REMARK   97  A    between atoms: _243  and  _245
REMARK   98  A    between atoms: _245  and  _246
REMARK   99  A    between atoms: _245  and  _248
REMARK  100  A    between atoms: _248  and  _249
REMARK  101  A    between atoms: _254  and  _256
REMARK  102  A    between atoms: _256  and  _257
REMARK  103  A    between atoms: _256  and  _259
REMARK  104  A    between atoms: _259  and  _260
REMARK  105  A    between atoms: _270  and  _272
REMARK  106  A    between atoms: _272  and  _273
REMARK  107  A    between atoms: _272  and  _275
REMARK  108  A    between atoms: _275  and  _276
REMARK  109  A    between atoms: _281  and  _282
REMARK  110  A    between atoms: _284  and  _286
REMARK  111  A    between atoms: _286  and  _287
REMARK  112  A    between atoms: _286  and  _289
REMARK  113  A    between atoms: _289  and  _290
REMARK  114  A    between atoms: _295  and  _297
REMARK  115  A    between atoms: _297  and  _298
REMARK  116  A    between atoms: _297  and  _300
REMARK  117  A    between atoms: _300  and  _301
REMARK  118  A    between atoms: _306  and  _308
REMARK  119  A    between atoms: _308  and  _309
REMARK  120  A    between atoms: _308  and  _311
REMARK  121  A    between atoms: _311  and  _312
REMARK  122  A    between atoms: _312  and  _313
REMARK  123  A    between atoms: _318  and  _320
REMARK  124  A    between atoms: _320  and  _321
REMARK  125  A    between atoms: _320  and  _323
REMARK  126  A    between atoms: _323  and  _324
REMARK  127  A    between atoms: _329  and  _330
REMARK  128  A    between atoms: _332  and  _334
REMARK  129  A    between atoms: _334  and  _335
REMARK  130  A    between atoms: _334  and  _337
REMARK  131  A    between atoms: _337  and  _338
REMARK  132  A    between atoms: _341  and  _343
REMARK  133  A    between atoms: _343  and  _344
REMARK  134  A    between atoms: _347  and  _349
REMARK  135  A    between atoms: _349  and  _350
REMARK  136  A    between atoms: _349  and  _352
REMARK  137  A    between atoms: _352  and  _353
REMARK  138  A    between atoms: _355  and  _357
REMARK  139  A    between atoms: _357  and  _358
REMARK  140  A    between atoms: _357  and  _360
REMARK  141  A    between atoms: _360  and  _361
REMARK  142  A    between atoms: _361  and  _362
REMARK  143  A    between atoms: _364  and  _366
REMARK  144  A    between atoms: _366  and  _367
REMARK  145  A    between atoms: _366  and  _369
REMARK  146  A    between atoms: _369  and  _370
REMARK  147  A    between atoms: _370  and  _371
REMARK  148  A    between atoms: _376  and  _378
REMARK  149  A    between atoms: _378  and  _379
REMARK  150  A    between atoms: _378  and  _381
REMARK  151  A    between atoms: _381  and  _382
REMARK  152  A    between atoms: _384  and  _386
REMARK  153  A    between atoms: _386  and  _387
REMARK  154  A    between atoms: _386  and  _389
REMARK  155  A    between atoms: _389  and  _390
REMARK  156  A    between atoms: _395  and  _396
REMARK  157  A    between atoms: _398  and  _400
REMARK  158  A    between atoms: _400  and  _401
REMARK  159  A    between atoms: _400  and  _403
REMARK  160  A    between atoms: _403  and  _404
REMARK  161  A    between atoms: _406  and  _408
REMARK  162  A    between atoms: _408  and  _409
REMARK  163  A    between atoms: _412  and  _414
REMARK  164  A    between atoms: _414  and  _415
REMARK  165  A    between atoms: _414  and  _417
REMARK  166  A    between atoms: _417  and  _418
REMARK  167  A    between atoms: _428  and  _430
REMARK  168  A    between atoms: _430  and  _431
REMARK  169  A    between atoms: _430  and  _433
REMARK  170  A    between atoms: _433  and  _434
REMARK  171  A    between atoms: _434  and  _435
REMARK  172  A    between atoms: _440  and  _442
REMARK  173  A    between atoms: _442  and  _443
REMARK  174  A    between atoms: _442  and  _445
REMARK  175  A    between atoms: _448  and  _450
REMARK  176  A    between atoms: _450  and  _451
REMARK  177  A    between atoms: _450  and  _453
REMARK  178  A    between atoms: _453  and  _454
REMARK  179  A    between atoms: _457  and  _459
REMARK  180  A    between atoms: _459  and  _460
REMARK  181  A    between atoms: _459  and  _462
REMARK  182  A    between atoms: _462  and  _463
REMARK  183  A    between atoms: _468  and  _469
REMARK  184  A    between atoms: _471  and  _473
REMARK  185  A    between atoms: _473  and  _474
REMARK  186  A    between atoms: _473  and  _476
REMARK  187  A    between atoms: _479  and  _481
REMARK  188  A    between atoms: _481  and  _482
REMARK  189  A    between atoms: _481  and  _484
REMARK  190  A    between atoms: _484  and  _485
REMARK  191  A    between atoms: _491  and  _493
REMARK  192  A    between atoms: _493  and  _494
REMARK  193  A    between atoms: _493  and  _496
REMARK  194  A    between atoms: _496  and  _497
REMARK  195  A    between atoms: _497  and  _498
REMARK  196  A    between atoms: _503  and  _505
REMARK  197  A    between atoms: _505  and  _506
REMARK  198  A    between atoms: _505  and  _508
REMARK  199  A    between atoms: _508  and  _509
REMARK  200  A    between atoms: _511  and  _513
REMARK  201  A    between atoms: _513  and  _514
REMARK  202  A    between atoms: _513  and  _516
REMARK  203  A    between atoms: _516  and  _517
REMARK  204  A    between atoms: _522  and  _524
REMARK  205  A    between atoms: _524  and  _525
REMARK  206  A    between atoms: _524  and  _527
REMARK  207  A    between atoms: _527  and  _528
REMARK  208  A    between atoms: _538  and  _540
REMARK  209  A    between atoms: _540  and  _541
REMARK  210  A    between atoms: _540  and  _543
REMARK  211  A    between atoms: _543  and  _544
REMARK  212  A    between atoms: _547  and  _549
REMARK  213  A    between atoms: _549  and  _550
REMARK  214  A    between atoms: _549  and  _552
REMARK  215  A    between atoms: _552  and  _553
REMARK  216  A    between atoms: _558  and  _559
REMARK  217  A    between atoms: _561  and  _563
REMARK  218  A    between atoms: _563  and  _564
REMARK  219  A    between atoms: _563  and  _566
REMARK  220  A    between atoms: _566  and  _567
REMARK  221  A    between atoms: _570  and  _572
REMARK  222  A    between atoms: _572  and  _573
REMARK  223  A    between atoms: _572  and  _575
REMARK  224  A    between atoms: _575  and  _576
REMARK  225  A    between atoms: _576  and  _577
REMARK  226  A    between atoms: _580  and  _582
REMARK  227  A    between atoms: _582  and  _583
REMARK  228  A    between atoms: _582  and  _585
REMARK  229  A    between atoms: _585  and  _586
REMARK  230  A    between atoms: _591  and  _593
REMARK  231  A    between atoms: _593  and  _594
REMARK  232  A    between atoms: _596  and  _598
REMARK  233  A    between atoms: _598  and  _599
REMARK  234  A    between atoms: _598  and  _601
REMARK  235  A    between atoms: _601  and  _602
REMARK  236  A    between atoms: _602  and  _603
REMARK  237  A    between atoms: _605  and  _607
REMARK  238  A    between atoms: _607  and  _608
REMARK  239  A    between atoms: _607  and  _610
REMARK  240  A    between atoms: _610  and  _611
REMARK  241  A    between atoms: _614  and  _616
REMARK  242  A    between atoms: _616  and  _617
REMARK  243  A    between atoms: _616  and  _619
REMARK  244  A    between atoms: _619  and  _620
REMARK  245  A    between atoms: _630  and  _632
REMARK  246  A    between atoms: _632  and  _633
REMARK  247  A    between atoms: _632  and  _635
REMARK  248  A    between atoms: _635  and  _636
REMARK  249  A    between atoms: _638  and  _640
REMARK  250  A    between atoms: _640  and  _641
REMARK  251  A    between atoms: _640  and  _643
REMARK  252  A    between atoms: _643  and  _644
REMARK  253  A    between atoms: _649  and  _651
REMARK  254  A    between atoms: _651  and  _652
REMARK  255  A    between atoms: _651  and  _654
REMARK  256  A    between atoms: _654  and  _655
REMARK  257  A    between atoms: _661  and  _663
REMARK  258  A    between atoms: _663  and  _664
REMARK  259  A    between atoms: _663  and  _666
REMARK  260  A    between atoms: _666  and  _667
REMARK  261  A    between atoms: _667  and  _668
REMARK  262  A    between atoms: _671  and  _673
REMARK  263  A    between atoms: _673  and  _674
REMARK  264  A    between atoms: _673  and  _676
REMARK  265  A    between atoms: _676  and  _677
REMARK  266  A    between atoms: _687  and  _689
REMARK  267  A    between atoms: _689  and  _690
REMARK  268  A    between atoms: _689  and  _692
REMARK  269  A    between atoms: _692  and  _693
REMARK  270  A    between atoms: _696  and  _698
REMARK  271  A    between atoms: _698  and  _699
REMARK  272  A    between atoms: _698  and  _701
REMARK  273  A    between atoms: _701  and  _702
REMARK  274  A    between atoms: _704  and  _706
REMARK  275  A    between atoms: _706  and  _707
REMARK  276  A    between atoms: _706  and  _709
REMARK  277  A    between atoms: _709  and  _710
REMARK  278  A    between atoms: _712  and  _714
REMARK  279  A    between atoms: _714  and  _715
REMARK  280  A    between atoms: _714  and  _717
REMARK  281  A    between atoms: _717  and  _718
REMARK                            x       y       z     vdW  Elec       q    Type
REMARK                         _______ _______ _______ _____ _____    ______ ____
ROOT
ATOM      1  O   HOH     1       9.392  -7.030  35.301  0.00  0.00    +0.000 OA
ENDROOT
TORSDOF 0
REMARK  Name = ../refined-set-2016/3f5k/3f5k_pocket.pdb
REMARK  281 active torsions:
REMARK  status: ('A' for Active; 'I' for Inactive)
REMARK    1  A    between atoms: _1  and  _3
REMARK    2  A    between atoms: _3  and  _4
REMARK    3  A    between atoms: _3  and  _6
REMARK    4  A    between atoms: _9  and  _11
REMARK    5  A    between atoms: _11  and  _12
REMARK    6  A    between atoms: _11  and  _14
REMARK    7  A    between atoms: _14  and  _15
REMARK    8  A    between atoms: _18  and  _20
REMARK    9  A    between atoms: _20  and  _21
REMARK   10  A    between atoms: _20  and  _23
REMARK   11  A    between atoms: _23  and  _24
REMARK   12  A    between atoms: _26  and  _28
REMARK   13  A    between atoms: _28  and  _29
REMARK   14  A    between atoms: _32  and  _34
REMARK   15  A    between atoms: _34  and  _35
REMARK   16  A    between atoms: _34  and  _37
REMARK   17  A    between atoms: _37  and  _38
REMARK   18  A    between atoms: _38  and  _39
REMARK   19  A    between atoms: _44  and  _46
REMARK   20  A    between atoms: _46  and  _47
REMARK   21  A    between atoms: _46  and  _49
REMARK   22  A    between atoms: _49  and  _50
REMARK   23  A    between atoms: _50  and  _51
REMARK   24  A    between atoms: _51  and  _52
REMARK   25  A    between atoms: _61  and  _63
REMARK   26  A    between atoms: _63  and  _64
REMARK   27  A    between atoms: _63  and  _66
REMARK   28  A    between atoms: _66  and  _67
REMARK   29  A    between atoms: _72  and  _74
REMARK   30  A    between atoms: _74  and  _75
REMARK   31  A    between atoms: _74  and  _77
REMARK   32  A    between atoms: _77  and  _78
REMARK   33  A    between atoms: _83  and  _85
REMARK   34  A    between atoms: _85  and  _86
REMARK   35  A    between atoms: _85  and  _88
REMARK   36  A    between atoms: _88  and  _89
REMARK   37  A    between atoms: _94  and  _95
REMARK   38  A    between atoms: _97  and  _99
REMARK   39  A    between atoms: _99  and  _100
REMARK   40  A    between atoms: _99  and  _102
REMARK   41  A    between atoms: _102  and  _103
REMARK   42  A    between atoms: _108  and  _110
REMARK   43  A    between atoms: _110  and  _111
REMARK   44  A    between atoms: _110  and  _113
REMARK   45  A    between atoms: _113  and  _114
REMARK   46  A    between atoms: _114  and  _115
REMARK   47  A    between atoms: _120  and  _122
REMARK   48  A    between atoms: _122  and  _123
REMARK   49  A    between atoms: _122  and  _125
REMARK   50  A    between atoms: _125  and  _126
REMARK   51  A    between atoms: _126  and  _127
REMARK   52  A    between atoms: _127  and  _128
REMARK   53  A    between atoms: _137  and  _139
REMARK   54  A    between atoms: _139  and  _140
REMARK   55  A    between atoms: _139  and  _142
REMARK   56  A    between atoms: _142  and  _143
REMARK   57  A    between atoms: _146  and  _148
REMARK   58  A    between atoms: _148  and  _149
REMARK   59  A    between atoms: _148  and  _151
REMARK   60  A    between atoms: _151  and  _152
REMARK   61  A    between atoms: _155  and  _157
REMARK   62  A    between atoms: _157  and  _158
REMARK   63  A    between atoms: _157  and  _160
REMARK   64  A    between atoms: _160  and  _161
REMARK   65  A    between atoms: _164  and  _166
REMARK   66  A    between atoms: _166  and  _167
REMARK   67  A    between atoms: _166  and  _169
REMARK   68  A    between atoms: _169  and  _170
REMARK   69  A    between atoms: _173  and  _175
REMARK   70  A    between atoms: _175  and  _176
REMARK   71  A    between atoms: _175  and  _178
REMARK   72  A    between atoms: _178  and  _179
REMARK   73  A    between atoms: _179  and  _180
REMARK   74  A    between atoms: _185  and  _187
REMARK   75  A    between atoms: _187  and  _188
REMARK   76  A    between atoms: _187  and  _190
REMARK   77  A    between atoms: _190  and  _191
REMARK   78  A    between atoms: _194  and  _196
REMARK   79  A    between atoms: _196  and  _197
REMARK   80  A    between atoms: _196  and  _199
REMARK   81  A    between atoms: _199  and  _200
REMARK   82  A    between atoms: _205  and  _207
REMARK   83  A    between atoms: _207  and  _208
REMARK   84  A    between atoms: _207  and  _210
REMARK   85  A    between atoms: _213  and  _215
REMARK   86  A    between atoms: _215  and  _216
REMARK   87  A    between atoms: _215  and  _218
REMARK   88  A    between atoms: _218  and  _219
REMARK   89  A    between atoms: _222  and  _224
REMARK   90  A    between atoms: _224  and  _225
REMARK   91  A    between atoms: _224  and  _227
REMARK   92  A    between atoms: _227  and  _228
REMARK   93  A    between atoms: _231  and  _233
REMARK   94  A    between atoms: _233  and  _234
REMARK   95  A    between atoms: _233  and  _236
REMARK   96  A    between atoms: _236  and  _237
REMARK   97  A    between atoms: _243  and  _245
REMARK   98  A    between atoms: _245  and  _246
REMARK   99  A    between atoms: _245  and  _248
REMARK  100  A    between atoms: _248  and  _249
REMARK  101  A    between atoms: _254  and  _256
REMARK  102  A    between atoms: _256  and  _257
REMARK  103  A    between atoms: _256  and  _259
REMARK  104  A    between atoms: _259  and  _260
REMARK  105  A    between atoms: _270  and  _272
REMARK  106  A    between atoms: _272  and  _273
REMARK  107  A    between atoms: _272  and  _275
REMARK  108  A    between atoms: _275  and  _276
REMARK  109  A    between atoms: _281  and  _282
REMARK  110  A    between atoms: _284  and  _286
REMARK  111  A    between atoms: _286  and  _287
REMARK  112  A    between atoms: _286  and  _289
REMARK  113  A    between atoms: _289  and  _290
REMARK  114  A    between atoms: _295  and  _297
REMARK  115  A    between atoms: _297  and  _298
REMARK  116  A    between atoms: _297  and  _300
REMARK  117  A    between atoms: _300  and  _301
REMARK  118  A    between atoms: _306  and  _308
REMARK  119  A    between atoms: _308  and  _309
REMARK  120  A    between atoms: _308  and  _311
REMARK  121  A    between atoms: _311  and  _312
REMARK  122  A    between atoms: _312  and  _313
REMARK  123  A    between atoms: _318  and  _320
REMARK  124  A    between atoms: _320  and  _321
REMARK  125  A    between atoms: _320  and  _323
REMARK  126  A    between atoms: _323  and  _324
REMARK  127  A    between atoms: _329  and  _330
REMARK  128  A    between atoms: _332  and  _334
REMARK  129  A    between atoms: _334  and  _335
REMARK  130  A    between atoms: _334  and  _337
REMARK  131  A    between atoms: _337  and  _338
REMARK  132  A    between atoms: _341  and  _343
REMARK  133  A    between atoms: _343  and  _344
REMARK  134  A    between atoms: _347  and  _349
REMARK  135  A    between atoms: _349  and  _350
REMARK  136  A    between atoms: _349  and  _352
REMARK  137  A    between atoms: _352  and  _353
REMARK  138  A    between atoms: _355  and  _357
REMARK  139  A    between atoms: _357  and  _358
REMARK  140  A    between atoms: _357  and  _360
REMARK  141  A    between atoms: _360  and  _361
REMARK  142  A    between atoms: _361  and  _362
REMARK  143  A    between atoms: _364  and  _366
REMARK  144  A    between atoms: _366  and  _367
REMARK  145  A    between atoms: _366  and  _369
REMARK  146  A    between atoms: _369  and  _370
REMARK  147  A    between atoms: _370  and  _371
REMARK  148  A    between atoms: _376  and  _378
REMARK  149  A    between atoms: _378  and  _379
REMARK  150  A    between atoms: _378  and  _381
REMARK  151  A    between atoms: _381  and  _382
REMARK  152  A    between atoms: _384  and  _386
REMARK  153  A    between atoms: _386  and  _387
REMARK  154  A    between atoms: _386  and  _389
REMARK  155  A    between atoms: _389  and  _390
REMARK  156  A    between atoms: _395  and  _396
REMARK  157  A    between atoms: _398  and  _400
REMARK  158  A    between atoms: _400  and  _401
REMARK  159  A    between atoms: _400  and  _403
REMARK  160  A    between atoms: _403  and  _404
REMARK  161  A    between atoms: _406  and  _408
REMARK  162  A    between atoms: _408  and  _409
REMARK  163  A    between atoms: _412  and  _414
REMARK  164  A    between atoms: _414  and  _415
REMARK  165  A    between atoms: _414  and  _417
REMARK  166  A    between atoms: _417  and  _418
REMARK  167  A    between atoms: _428  and  _430
REMARK  168  A    between atoms: _430  and  _431
REMARK  169  A    between atoms: _430  and  _433
REMARK  170  A    between atoms: _433  and  _434
REMARK  171  A    between atoms: _434  and  _435
REMARK  172  A    between atoms: _440  and  _442
REMARK  173  A    between atoms: _442  and  _443
REMARK  174  A    between atoms: _442  and  _445
REMARK  175  A    between atoms: _448  and  _450
REMARK  176  A    between atoms: _450  and  _451
REMARK  177  A    between atoms: _450  and  _453
REMARK  178  A    between atoms: _453  and  _454
REMARK  179  A    between atoms: _457  and  _459
REMARK  180  A    between atoms: _459  and  _460
REMARK  181  A    between atoms: _459  and  _462
REMARK  182  A    between atoms: _462  and  _463
REMARK  183  A    between atoms: _468  and  _469
REMARK  184  A    between atoms: _471  and  _473
REMARK  185  A    between atoms: _473  and  _474
REMARK  186  A    between atoms: _473  and  _476
REMARK  187  A    between atoms: _479  and  _481
REMARK  188  A    between atoms: _481  and  _482
REMARK  189  A    between atoms: _481  and  _484
REMARK  190  A    between atoms: _484  and  _485
REMARK  191  A    between atoms: _491  and  _493
REMARK  192  A    between atoms: _493  and  _494
REMARK  193  A    between atoms: _493  and  _496
REMARK  194  A    between atoms: _496  and  _497
REMARK  195  A    between atoms: _497  and  _498
REMARK  196  A    between atoms: _503  and  _505
REMARK  197  A    between atoms: _505  and  _506
REMARK  198  A    between atoms: _505  and  _508
REMARK  199  A    between atoms: _508  and  _509
REMARK  200  A    between atoms: _511  and  _513
REMARK  201  A    between atoms: _513  and  _514
REMARK  202  A    between atoms: _513  and  _516
REMARK  203  A    between atoms: _516  and  _517
REMARK  204  A    between atoms: _522  and  _524
REMARK  205  A    between atoms: _524  and  _525
REMARK  206  A    between atoms: _524  and  _527
REMARK  207  A    between atoms: _527  and  _528
REMARK  208  A    between atoms: _538  and  _540
REMARK  209  A    between atoms: _540  and  _541
REMARK  210  A    between atoms: _540  and  _543
REMARK  211  A    between atoms: _543  and  _544
REMARK  212  A    between atoms: _547  and  _549
REMARK  213  A    between atoms: _549  and  _550
REMARK  214  A    between atoms: _549  and  _552
REMARK  215  A    between atoms: _552  and  _553
REMARK  216  A    between atoms: _558  and  _559
REMARK  217  A    between atoms: _561  and  _563
REMARK  218  A    between atoms: _563  and  _564
REMARK  219  A    between atoms: _563  and  _566
REMARK  220  A    between atoms: _566  and  _567
REMARK  221  A    between atoms: _570  and  _572
REMARK  222  A    between atoms: _572  and  _573
REMARK  223  A    between atoms: _572  and  _575
REMARK  224  A    between atoms: _575  and  _576
REMARK  225  A    between atoms: _576  and  _577
REMARK  226  A    between atoms: _580  and  _582
REMARK  227  A    between atoms: _582  and  _583
REMARK  228  A    between atoms: _582  and  _585
REMARK  229  A    between atoms: _585  and  _586
REMARK  230  A    between atoms: _591  and  _593
REMARK  231  A    between atoms: _593  and  _594
REMARK  232  A    between atoms: _596  and  _598
REMARK  233  A    between atoms: _598  and  _599
REMARK  234  A    between atoms: _598  and  _601
REMARK  235  A    between atoms: _601  and  _602
REMARK  236  A    between atoms: _602  and  _603
REMARK  237  A    between atoms: _605  and  _607
REMARK  238  A    between atoms: _607  and  _608
REMARK  239  A    between atoms: _607  and  _610
REMARK  240  A    between atoms: _610  and  _611
REMARK  241  A    between atoms: _614  and  _616
REMARK  242  A    between atoms: _616  and  _617
REMARK  243  A    between atoms: _616  and  _619
REMARK  244  A    between atoms: _619  and  _620
REMARK  245  A    between atoms: _630  and  _632
REMARK  246  A    between atoms: _632  and  _633
REMARK  247  A    between atoms: _632  and  _635
REMARK  248  A    between atoms: _635  and  _636
REMARK  249  A    between atoms: _638  and  _640
REMARK  250  A    between atoms: _640  and  _641
REMARK  251  A    between atoms: _640  and  _643
REMARK  252  A    between atoms: _643  and  _644
REMARK  253  A    between atoms: _649  and  _651
REMARK  254  A    between atoms: _651  and  _652
REMARK  255  A    between atoms: _651  and  _654
REMARK  256  A    between atoms: _654  and  _655
REMARK  257  A    between atoms: _661  and  _663
REMARK  258  A    between atoms: _663  and  _664
REMARK  259  A    between atoms: _663  and  _666
REMARK  260  A    between atoms: _666  and  _667
REMARK  261  A    between atoms: _667  and  _668
REMARK  262  A    between atoms: _671  and  _673
REMARK  263  A    between atoms: _673  and  _674
REMARK  264  A    between atoms: _673  and  _676
REMARK  265  A    between atoms: _676  and  _677
REMARK  266  A    between atoms: _687  and  _689
REMARK  267  A    between atoms: _689  and  _690
REMARK  268  A    between atoms: _689  and  _692
REMARK  269  A    between atoms: _692  and  _693
REMARK  270  A    between atoms: _696  and  _698
REMARK  271  A    between atoms: _698  and  _699
REMARK  272  A    between atoms: _698  and  _701
REMARK  273  A    between atoms: _701  and  _702
REMARK  274  A    between atoms: _704  and  _706
REMARK  275  A    between atoms: _706  and  _707
REMARK  276  A    between atoms: _706  and  _709
REMARK  277  A    between atoms: _709  and  _710
REMARK  278  A    between atoms: _712  and  _714
REMARK  279  A    between atoms: _714  and  _715
REMARK  280  A    between atoms: _714  and  _717
REMARK  281  A    between atoms: _717  and  _718
REMARK                            x       y       z     vdW  Elec       q    Type
REMARK                         _______ _______ _______ _____ _____    ______ ____
ROOT
ATOM      1  O   HOH     1       0.771   4.793  47.524  0.00  0.00    +0.000 OA
ENDROOT
TORSDOF 0
REMARK  Name = ../refined-set-2016/3f5k/3f5k_pocket.pdb
REMARK  281 active torsions:
REMARK  status: ('A' for Active; 'I' for Inactive)
REMARK    1  A    between atoms: _1  and  _3
REMARK    2  A    between atoms: _3  and  _4
REMARK    3  A    between atoms: _3  and  _6
REMARK    4  A    between atoms: _9  and  _11
REMARK    5  A    between atoms: _11  and  _12
REMARK    6  A    between atoms: _11  and  _14
REMARK    7  A    between atoms: _14  and  _15
REMARK    8  A    between atoms: _18  and  _20
REMARK    9  A    between atoms: _20  and  _21
REMARK   10  A    between atoms: _20  and  _23
REMARK   11  A    between atoms: _23  and  _24
REMARK   12  A    between atoms: _26  and  _28
REMARK   13  A    between atoms: _28  and  _29
REMARK   14  A    between atoms: _32  and  _34
REMARK   15  A    between atoms: _34  and  _35
REMARK   16  A    between atoms: _34  and  _37
REMARK   17  A    between atoms: _37  and  _38
REMARK   18  A    between atoms: _38  and  _39
REMARK   19  A    between atoms: _44  and  _46
REMARK   20  A    between atoms: _46  and  _47
REMARK   21  A    between atoms: _46  and  _49
REMARK   22  A    between atoms: _49  and  _50
REMARK   23  A    between atoms: _50  and  _51
REMARK   24  A    between atoms: _51  and  _52
REMARK   25  A    between atoms: _61  and  _63
REMARK   26  A    between atoms: _63  and  _64
REMARK   27  A    between atoms: _63  and  _66
REMARK   28  A    between atoms: _66  and  _67
REMARK   29  A    between atoms: _72  and  _74
REMARK   30  A    between atoms: _74  and  _75
REMARK   31  A    between atoms: _74  and  _77
REMARK   32  A    between atoms: _77  and  _78
REMARK   33  A    between atoms: _83  and  _85
REMARK   34  A    between atoms: _85  and  _86
REMARK   35  A    between atoms: _85  and  _88
REMARK   36  A    between atoms: _88  and  _89
REMARK   37  A    between atoms: _94  and  _95
REMARK   38  A    between atoms: _97  and  _99
REMARK   39  A    between atoms: _99  and  _100
REMARK   40  A    between atoms: _99  and  _102
REMARK   41  A    between atoms: _102  and  _103
REMARK   42  A    between atoms: _108  and  _110
REMARK   43  A    between atoms: _110  and  _111
REMARK   44  A    between atoms: _110  and  _113
REMARK   45  A    between atoms: _113  and  _114
REMARK   46  A    between atoms: _114  and  _115
REMARK   47  A    between atoms: _120  and  _122
REMARK   48  A    between atoms: _122  and  _123
REMARK   49  A    between atoms: _122  and  _125
REMARK   50  A    between atoms: _125  and  _126
REMARK   51  A    between atoms: _126  and  _127
REMARK   52  A    between atoms: _127  and  _128
REMARK   53  A    between atoms: _137  and  _139
REMARK   54  A    between atoms: _139  and  _140
REMARK   55  A    between atoms: _139  and  _142
REMARK   56  A    between atoms: _142  and  _143
REMARK   57  A    between atoms: _146  and  _148
REMARK   58  A    between atoms: _148  and  _149
REMARK   59  A    between atoms: _148  and  _151
REMARK   60  A    between atoms: _151  and  _152
REMARK   61  A    between atoms: _155  and  _157
REMARK   62  A    between atoms: _157  and  _158
REMARK   63  A    between atoms: _157  and  _160
REMARK   64  A    between atoms: _160  and  _161
REMARK   65  A    between atoms: _164  and  _166
REMARK   66  A    between atoms: _166  and  _167
REMARK   67  A    between atoms: _166  and  _169
REMARK   68  A    between atoms: _169  and  _170
REMARK   69  A    between atoms: _173  and  _175
REMARK   70  A    between atoms: _175  and  _176
REMARK   71  A    between atoms: _175  and  _178
REMARK   72  A    between atoms: _178  and  _179
REMARK   73  A    between atoms: _179  and  _180
REMARK   74  A    between atoms: _185  and  _187
REMARK   75  A    between atoms: _187  and  _188
REMARK   76  A    between atoms: _187  and  _190
REMARK   77  A    between atoms: _190  and  _191
REMARK   78  A    between atoms: _194  and  _196
REMARK   79  A    between atoms: _196  and  _197
REMARK   80  A    between atoms: _196  and  _199
REMARK   81  A    between atoms: _199  and  _200
REMARK   82  A    between atoms: _205  and  _207
REMARK   83  A    between atoms: _207  and  _208
REMARK   84  A    between atoms: _207  and  _210
REMARK   85  A    between atoms: _213  and  _215
REMARK   86  A    between atoms: _215  and  _216
REMARK   87  A    between atoms: _215  and  _218
REMARK   88  A    between atoms: _218  and  _219
REMARK   89  A    between atoms: _222  and  _224
REMARK   90  A    between atoms: _224  and  _225
REMARK   91  A    between atoms: _224  and  _227
REMARK   92  A    between atoms: _227  and  _228
REMARK   93  A    between atoms: _231  and  _233
REMARK   94  A    between atoms: _233  and  _234
REMARK   95  A    between atoms: _233  and  _236
REMARK   96  A    between atoms: _236  and  _237
REMARK   97  A    between atoms: _243  and  _245
REMARK   98  A    between atoms: _245  and  _246
REMARK   99  A    between atoms: _245  and  _248
REMARK  100  A    between atoms: _248  and  _249
REMARK  101  A    between atoms: _254  and  _256
REMARK  102  A    between atoms: _256  and  _257
REMARK  103  A    between atoms: _256  and  _259
REMARK  104  A    between atoms: _259  and  _260
REMARK  105  A    between atoms: _270  and  _272
REMARK  106  A    between atoms: _272  and  _273
REMARK  107  A    between atoms: _272  and  _275
REMARK  108  A    between atoms: _275  and  _276
REMARK  109  A    between atoms: _281  and  _282
REMARK  110  A    between atoms: _284  and  _286
REMARK  111  A    between atoms: _286  and  _287
REMARK  112  A    between atoms: _286  and  _289
REMARK  113  A    between atoms: _289  and  _290
REMARK  114  A    between atoms: _295  and  _297
REMARK  115  A    between atoms: _297  and  _298
REMARK  116  A    between atoms: _297  and  _300
REMARK  117  A    between atoms: _300  and  _301
REMARK  118  A    between atoms: _306  and  _308
REMARK  119  A    between atoms: _308  and  _309
REMARK  120  A    between atoms: _308  and  _311
REMARK  121  A    between atoms: _311  and  _312
REMARK  122  A    between atoms: _312  and  _313
REMARK  123  A    between atoms: _318  and  _320
REMARK  124  A    between atoms: _320  and  _321
REMARK  125  A    between atoms: _320  and  _323
REMARK  126  A    between atoms: _323  and  _324
REMARK  127  A    between atoms: _329  and  _330
REMARK  128  A    between atoms: _332  and  _334
REMARK  129  A    between atoms: _334  and  _335
REMARK  130  A    between atoms: _334  and  _337
REMARK  131  A    between atoms: _337  and  _338
REMARK  132  A    between atoms: _341  and  _343
REMARK  133  A    between atoms: _343  and  _344
REMARK  134  A    between atoms: _347  and  _349
REMARK  135  A    between atoms: _349  and  _350
REMARK  136  A    between atoms: _349  and  _352
REMARK  137  A    between atoms: _352  and  _353
REMARK  138  A    between atoms: _355  and  _357
REMARK  139  A    between atoms: _357  and  _358
REMARK  140  A    between atoms: _357  and  _360
REMARK  141  A    between atoms: _360  and  _361
REMARK  142  A    between atoms: _361  and  _362
REMARK  143  A    between atoms: _364  and  _366
REMARK  144  A    between atoms: _366  and  _367
REMARK  145  A    between atoms: _366  and  _369
REMARK  146  A    between atoms: _369  and  _370
REMARK  147  A    between atoms: _370  and  _371
REMARK  148  A    between atoms: _376  and  _378
REMARK  149  A    between atoms: _378  and  _379
REMARK  150  A    between atoms: _378  and  _381
REMARK  151  A    between atoms: _381  and  _382
REMARK  152  A    between atoms: _384  and  _386
REMARK  153  A    between atoms: _386  and  _387
REMARK  154  A    between atoms: _386  and  _389
REMARK  155  A    between atoms: _389  and  _390
REMARK  156  A    between atoms: _395  and  _396
REMARK  157  A    between atoms: _398  and  _400
REMARK  158  A    between atoms: _400  and  _401
REMARK  159  A    between atoms: _400  and  _403
REMARK  160  A    between atoms: _403  and  _404
REMARK  161  A    between atoms: _406  and  _408
REMARK  162  A    between atoms: _408  and  _409
REMARK  163  A    between atoms: _412  and  _414
REMARK  164  A    between atoms: _414  and  _415
REMARK  165  A    between atoms: _414  and  _417
REMARK  166  A    between atoms: _417  and  _418
REMARK  167  A    between atoms: _428  and  _430
REMARK  168  A    between atoms: _430  and  _431
REMARK  169  A    between atoms: _430  and  _433
REMARK  170  A    between atoms: _433  and  _434
REMARK  171  A    between atoms: _434  and  _435
REMARK  172  A    between atoms: _440  and  _442
REMARK  173  A    between atoms: _442  and  _443
REMARK  174  A    between atoms: _442  and  _445
REMARK  175  A    between atoms: _448  and  _450
REMARK  176  A    between atoms: _450  and  _451
REMARK  177  A    between atoms: _450  and  _453
REMARK  178  A    between atoms: _453  and  _454
REMARK  179  A    between atoms: _457  and  _459
REMARK  180  A    between atoms: _459  and  _460
REMARK  181  A    between atoms: _459  and  _462
REMARK  182  A    between atoms: _462  and  _463
REMARK  183  A    between atoms: _468  and  _469
REMARK  184  A    between atoms: _471  and  _473
REMARK  185  A    between atoms: _473  and  _474
REMARK  186  A    between atoms: _473  and  _476
REMARK  187  A    between atoms: _479  and  _481
REMARK  188  A    between atoms: _481  and  _482
REMARK  189  A    between atoms: _481  and  _484
REMARK  190  A    between atoms: _484  and  _485
REMARK  191  A    between atoms: _491  and  _493
REMARK  192  A    between atoms: _493  and  _494
REMARK  193  A    between atoms: _493  and  _496
REMARK  194  A    between atoms: _496  and  _497
REMARK  195  A    between atoms: _497  and  _498
REMARK  196  A    between atoms: _503  and  _505
REMARK  197  A    between atoms: _505  and  _506
REMARK  198  A    between atoms: _505  and  _508
REMARK  199  A    between atoms: _508  and  _509
REMARK  200  A    between atoms: _511  and  _513
REMARK  201  A    between atoms: _513  and  _514
REMARK  202  A    between atoms: _513  and  _516
REMARK  203  A    between atoms: _516  and  _517
REMARK  204  A    between atoms: _522  and  _524
REMARK  205  A    between atoms: _524  and  _525
REMARK  206  A    between atoms: _524  and  _527
REMARK  207  A    between atoms: _527  and  _528
REMARK  208  A    between atoms: _538  and  _540
REMARK  209  A    between atoms: _540  and  _541
REMARK  210  A    between atoms: _540  and  _543
REMARK  211  A    between atoms: _543  and  _544
REMARK  212  A    between atoms: _547  and  _549
REMARK  213  A    between atoms: _549  and  _550
REMARK  214  A    between atoms: _549  and  _552
REMARK  215  A    between atoms: _552  and  _553
REMARK  216  A    between atoms: _558  and  _559
REMARK  217  A    between atoms: _561  and  _563
REMARK  218  A    between atoms: _563  and  _564
REMARK  219  A    between atoms: _563  and  _566
REMARK  220  A    between atoms: _566  and  _567
REMARK  221  A    between atoms: _570  and  _572
REMARK  222  A    between atoms: _572  and  _573
REMARK  223  A    between atoms: _572  and  _575
REMARK  224  A    between atoms: _575  and  _576
REMARK  225  A    between atoms: _576  and  _577
REMARK  226  A    between atoms: _580  and  _582
REMARK  227  A    between atoms: _582  and  _583
REMARK  228  A    between atoms: _582  and  _585
REMARK  229  A    between atoms: _585  and  _586
REMARK  230  A    between atoms: _591  and  _593
REMARK  231  A    between atoms: _593  and  _594
REMARK  232  A    between atoms: _596  and  _598
REMARK  233  A    between atoms: _598  and  _599
REMARK  234  A    between atoms: _598  and  _601
REMARK  235  A    between atoms: _601  and  _602
REMARK  236  A    between atoms: _602  and  _603
REMARK  237  A    between atoms: _605  and  _607
REMARK  238  A    between atoms: _607  and  _608
REMARK  239  A    between atoms: _607  and  _610
REMARK  240  A    between atoms: _610  and  _611
REMARK  241  A    between atoms: _614  and  _616
REMARK  242  A    between atoms: _616  and  _617
REMARK  243  A    between atoms: _616  and  _619
REMARK  244  A    between atoms: _619  and  _620
REMARK  245  A    between atoms: _630  and  _632
REMARK  246  A    between atoms: _632  and  _633
REMARK  247  A    between atoms: _632  and  _635
REMARK  248  A    between atoms: _635  and  _636
REMARK  249  A    between atoms: _638  and  _640
REMARK  250  A    between atoms: _640  and  _641
REMARK  251  A    between atoms: _640  and  _643
REMARK  252  A    between atoms: _643  and  _644
REMARK  253  A    between atoms: _649  and  _651
REMARK  254  A    between atoms: _651  and  _652
REMARK  255  A    between atoms: _651  and  _654
REMARK  256  A    between atoms: _654  and  _655
REMARK  257  A    between atoms: _661  and  _663
REMARK  258  A    between atoms: _663  and  _664
REMARK  259  A    between atoms: _663  and  _666
REMARK  260  A    between atoms: _666  and  _667
REMARK  261  A    between atoms: _667  and  _668
REMARK  262  A    between atoms: _671  and  _673
REMARK  263  A    between atoms: _673  and  _674
REMARK  264  A    between atoms: _673  and  _676
REMARK  265  A    between atoms: _676  and  _677
REMARK  266  A    between atoms: _687  and  _689
REMARK  267  A    between atoms: _689  and  _690
REMARK  268  A    between atoms: _689  and  _692
REMARK  269  A    between atoms: _692  and  _693
REMARK  270  A    between atoms: _696  and  _698
REMARK  271  A    between atoms: _698  and  _699
REMARK  272  A    between atoms: _698  and  _701
REMARK  273  A    between atoms: _701  and  _702
REMARK  274  A    between atoms: _704  and  _706
REMARK  275  A    between atoms: _706  and  _707
REMARK  276  A    between atoms: _706  and  _709
REMARK  277  A    between atoms: _709  and  _710
REMARK  278  A    between atoms: _712  and  _714
REMARK  279  A    between atoms: _714  and  _715
REMARK  280  A    between atoms: _714  and  _717
REMARK  281  A    between atoms: _717  and  _718
REMARK                            x       y       z     vdW  Elec       q    Type
REMARK                         _______ _______ _______ _____ _____    ______ ____
ROOT
ATOM      1  O   HOH     1       2.350   6.119  48.975  0.00  0.00    +0.000 OA
ENDROOT
TORSDOF 0
REMARK  Name = ../refined-set-2016/3f5k/3f5k_pocket.pdb
REMARK  281 active torsions:
REMARK  status: ('A' for Active; 'I' for Inactive)
REMARK    1  A    between atoms: _1  and  _3
REMARK    2  A    between atoms: _3  and  _4
REMARK    3  A    between atoms: _3  and  _6
REMARK    4  A    between atoms: _9  and  _11
REMARK    5  A    between atoms: _11  and  _12
REMARK    6  A    between atoms: _11  and  _14
REMARK    7  A    between atoms: _14  and  _15
REMARK    8  A    between atoms: _18  and  _20
REMARK    9  A    between atoms: _20  and  _21
REMARK   10  A    between atoms: _20  and  _23
REMARK   11  A    between atoms: _23  and  _24
REMARK   12  A    between atoms: _26  and  _28
REMARK   13  A    between atoms: _28  and  _29
REMARK   14  A    between atoms: _32  and  _34
REMARK   15  A    between atoms: _34  and  _35
REMARK   16  A    between atoms: _34  and  _37
REMARK   17  A    between atoms: _37  and  _38
REMARK   18  A    between atoms: _38  and  _39
REMARK   19  A    between atoms: _44  and  _46
REMARK   20  A    between atoms: _46  and  _47
REMARK   21  A    between atoms: _46  and  _49
REMARK   22  A    between atoms: _49  and  _50
REMARK   23  A    between atoms: _50  and  _51
REMARK   24  A    between atoms: _51  and  _52
REMARK   25  A    between atoms: _61  and  _63
REMARK   26  A    between atoms: _63  and  _64
REMARK   27  A    between atoms: _63  and  _66
REMARK   28  A    between atoms: _66  and  _67
REMARK   29  A    between atoms: _72  and  _74
REMARK   30  A    between atoms: _74  and  _75
REMARK   31  A    between atoms: _74  and  _77
REMARK   32  A    between atoms: _77  and  _78
REMARK   33  A    between atoms: _83  and  _85
REMARK   34  A    between atoms: _85  and  _86
REMARK   35  A    between atoms: _85  and  _88
REMARK   36  A    between atoms: _88  and  _89
REMARK   37  A    between atoms: _94  and  _95
REMARK   38  A    between atoms: _97  and  _99
REMARK   39  A    between atoms: _99  and  _100
REMARK   40  A    between atoms: _99  and  _102
REMARK   41  A    between atoms: _102  and  _103
REMARK   42  A    between atoms: _108  and  _110
REMARK   43  A    between atoms: _110  and  _111
REMARK   44  A    between atoms: _110  and  _113
REMARK   45  A    between atoms: _113  and  _114
REMARK   46  A    between atoms: _114  and  _115
REMARK   47  A    between atoms: _120  and  _122
REMARK   48  A    between atoms: _122  and  _123
REMARK   49  A    between atoms: _122  and  _125
REMARK   50  A    between atoms: _125  and  _126
REMARK   51  A    between atoms: _126  and  _127
REMARK   52  A    between atoms: _127  and  _128
REMARK   53  A    between atoms: _137  and  _139
REMARK   54  A    between atoms: _139  and  _140
REMARK   55  A    between atoms: _139  and  _142
REMARK   56  A    between atoms: _142  and  _143
REMARK   57  A    between atoms: _146  and  _148
REMARK   58  A    between atoms: _148  and  _149
REMARK   59  A    between atoms: _148  and  _151
REMARK   60  A    between atoms: _151  and  _152
REMARK   61  A    between atoms: _155  and  _157
REMARK   62  A    between atoms: _157  and  _158
REMARK   63  A    between atoms: _157  and  _160
REMARK   64  A    between atoms: _160  and  _161
REMARK   65  A    between atoms: _164  and  _166
REMARK   66  A    between atoms: _166  and  _167
REMARK   67  A    between atoms: _166  and  _169
REMARK   68  A    between atoms: _169  and  _170
REMARK   69  A    between atoms: _173  and  _175
REMARK   70  A    between atoms: _175  and  _176
REMARK   71  A    between atoms: _175  and  _178
REMARK   72  A    between atoms: _178  and  _179
REMARK   73  A    between atoms: _179  and  _180
REMARK   74  A    between atoms: _185  and  _187
REMARK   75  A    between atoms: _187  and  _188
REMARK   76  A    between atoms: _187  and  _190
REMARK   77  A    between atoms: _190  and  _191
REMARK   78  A    between atoms: _194  and  _196
REMARK   79  A    between atoms: _196  and  _197
REMARK   80  A    between atoms: _196  and  _199
REMARK   81  A    between atoms: _199  and  _200
REMARK   82  A    between atoms: _205  and  _207
REMARK   83  A    between atoms: _207  and  _208
REMARK   84  A    between atoms: _207  and  _210
REMARK   85  A    between atoms: _213  and  _215
REMARK   86  A    between atoms: _215  and  _216
REMARK   87  A    between atoms: _215  and  _218
REMARK   88  A    between atoms: _218  and  _219
REMARK   89  A    between atoms: _222  and  _224
REMARK   90  A    between atoms: _224  and  _225
REMARK   91  A    between atoms: _224  and  _227
REMARK   92  A    between atoms: _227  and  _228
REMARK   93  A    between atoms: _231  and  _233
REMARK   94  A    between atoms: _233  and  _234
REMARK   95  A    between atoms: _233  and  _236
REMARK   96  A    between atoms: _236  and  _237
REMARK   97  A    between atoms: _243  and  _245
REMARK   98  A    between atoms: _245  and  _246
REMARK   99  A    between atoms: _245  and  _248
REMARK  100  A    between atoms: _248  and  _249
REMARK  101  A    between atoms: _254  and  _256
REMARK  102  A    between atoms: _256  and  _257
REMARK  103  A    between atoms: _256  and  _259
REMARK  104  A    between atoms: _259  and  _260
REMARK  105  A    between atoms: _270  and  _272
REMARK  106  A    between atoms: _272  and  _273
REMARK  107  A    between atoms: _272  and  _275
REMARK  108  A    between atoms: _275  and  _276
REMARK  109  A    between atoms: _281  and  _282
REMARK  110  A    between atoms: _284  and  _286
REMARK  111  A    between atoms: _286  and  _287
REMARK  112  A    between atoms: _286  and  _289
REMARK  113  A    between atoms: _289  and  _290
REMARK  114  A    between atoms: _295  and  _297
REMARK  115  A    between atoms: _297  and  _298
REMARK  116  A    between atoms: _297  and  _300
REMARK  117  A    between atoms: _300  and  _301
REMARK  118  A    between atoms: _306  and  _308
REMARK  119  A    between atoms: _308  and  _309
REMARK  120  A    between atoms: _308  and  _311
REMARK  121  A    between atoms: _311  and  _312
REMARK  122  A    between atoms: _312  and  _313
REMARK  123  A    between atoms: _318  and  _320
REMARK  124  A    between atoms: _320  and  _321
REMARK  125  A    between atoms: _320  and  _323
REMARK  126  A    between atoms: _323  and  _324
REMARK  127  A    between atoms: _329  and  _330
REMARK  128  A    between atoms: _332  and  _334
REMARK  129  A    between atoms: _334  and  _335
REMARK  130  A    between atoms: _334  and  _337
REMARK  131  A    between atoms: _337  and  _338
REMARK  132  A    between atoms: _341  and  _343
REMARK  133  A    between atoms: _343  and  _344
REMARK  134  A    between atoms: _347  and  _349
REMARK  135  A    between atoms: _349  and  _350
REMARK  136  A    between atoms: _349  and  _352
REMARK  137  A    between atoms: _352  and  _353
REMARK  138  A    between atoms: _355  and  _357
REMARK  139  A    between atoms: _357  and  _358
REMARK  140  A    between atoms: _357  and  _360
REMARK  141  A    between atoms: _360  and  _361
REMARK  142  A    between atoms: _361  and  _362
REMARK  143  A    between atoms: _364  and  _366
REMARK  144  A    between atoms: _366  and  _367
REMARK  145  A    between atoms: _366  and  _369
REMARK  146  A    between atoms: _369  and  _370
REMARK  147  A    between atoms: _370  and  _371
REMARK  148  A    between atoms: _376  and  _378
REMARK  149  A    between atoms: _378  and  _379
REMARK  150  A    between atoms: _378  and  _381
REMARK  151  A    between atoms: _381  and  _382
REMARK  152  A    between atoms: _384  and  _386
REMARK  153  A    between atoms: _386  and  _387
REMARK  154  A    between atoms: _386  and  _389
REMARK  155  A    between atoms: _389  and  _390
REMARK  156  A    between atoms: _395  and  _396
REMARK  157  A    between atoms: _398  and  _400
REMARK  158  A    between atoms: _400  and  _401
REMARK  159  A    between atoms: _400  and  _403
REMARK  160  A    between atoms: _403  and  _404
REMARK  161  A    between atoms: _406  and  _408
REMARK  162  A    between atoms: _408  and  _409
REMARK  163  A    between atoms: _412  and  _414
REMARK  164  A    between atoms: _414  and  _415
REMARK  165  A    between atoms: _414  and  _417
REMARK  166  A    between atoms: _417  and  _418
REMARK  167  A    between atoms: _428  and  _430
REMARK  168  A    between atoms: _430  and  _431
REMARK  169  A    between atoms: _430  and  _433
REMARK  170  A    between atoms: _433  and  _434
REMARK  171  A    between atoms: _434  and  _435
REMARK  172  A    between atoms: _440  and  _442
REMARK  173  A    between atoms: _442  and  _443
REMARK  174  A    between atoms: _442  and  _445
REMARK  175  A    between atoms: _448  and  _450
REMARK  176  A    between atoms: _450  and  _451
REMARK  177  A    between atoms: _450  and  _453
REMARK  178  A    between atoms: _453  and  _454
REMARK  179  A    between atoms: _457  and  _459
REMARK  180  A    between atoms: _459  and  _460
REMARK  181  A    between atoms: _459  and  _462
REMARK  182  A    between atoms: _462  and  _463
REMARK  183  A    between atoms: _468  and  _469
REMARK  184  A    between atoms: _471  and  _473
REMARK  185  A    between atoms: _473  and  _474
REMARK  186  A    between atoms: _473  and  _476
REMARK  187  A    between atoms: _479  and  _481
REMARK  188  A    between atoms: _481  and  _482
REMARK  189  A    between atoms: _481  and  _484
REMARK  190  A    between atoms: _484  and  _485
REMARK  191  A    between atoms: _491  and  _493
REMARK  192  A    between atoms: _493  and  _494
REMARK  193  A    between atoms: _493  and  _496
REMARK  194  A    between atoms: _496  and  _497
REMARK  195  A    between atoms: _497  and  _498
REMARK  196  A    between atoms: _503  and  _505
REMARK  197  A    between atoms: _505  and  _506
REMARK  198  A    between atoms: _505  and  _508
REMARK  199  A    between atoms: _508  and  _509
REMARK  200  A    between atoms: _511  and  _513
REMARK  201  A    between atoms: _513  and  _514
REMARK  202  A    between atoms: _513  and  _516
REMARK  203  A    between atoms: _516  and  _517
REMARK  204  A    between atoms: _522  and  _524
REMARK  205  A    between atoms: _524  and  _525
REMARK  206  A    between atoms: _524  and  _527
REMARK  207  A    between atoms: _527  and  _528
REMARK  208  A    between atoms: _538  and  _540
REMARK  209  A    between atoms: _540  and  _541
REMARK  210  A    between atoms: _540  and  _543
REMARK  211  A    between atoms: _543  and  _544
REMARK  212  A    between atoms: _547  and  _549
REMARK  213  A    between atoms: _549  and  _550
REMARK  214  A    between atoms: _549  and  _552
REMARK  215  A    between atoms: _552  and  _553
REMARK  216  A    between atoms: _558  and  _559
REMARK  217  A    between atoms: _561  and  _563
REMARK  218  A    between atoms: _563  and  _564
REMARK  219  A    between atoms: _563  and  _566
REMARK  220  A    between atoms: _566  and  _567
REMARK  221  A    between atoms: _570  and  _572
REMARK  222  A    between atoms: _572  and  _573
REMARK  223  A    between atoms: _572  and  _575
REMARK  224  A    between atoms: _575  and  _576
REMARK  225  A    between atoms: _576  and  _577
REMARK  226  A    between atoms: _580  and  _582
REMARK  227  A    between atoms: _582  and  _583
REMARK  228  A    between atoms: _582  and  _585
REMARK  229  A    between atoms: _585  and  _586
REMARK  230  A    between atoms: _591  and  _593
REMARK  231  A    between atoms: _593  and  _594
REMARK  232  A    between atoms: _596  and  _598
REMARK  233  A    between atoms: _598  and  _599
REMARK  234  A    between atoms: _598  and  _601
REMARK  235  A    between atoms: _601  and  _602
REMARK  236  A    between atoms: _602  and  _603
REMARK  237  A    between atoms: _605  and  _607
REMARK  238  A    between atoms: _607  and  _608
REMARK  239  A    between atoms: _607  and  _610
REMARK  240  A    between atoms: _610  and  _611
REMARK  241  A    between atoms: _614  and  _616
REMARK  242  A    between atoms: _616  and  _617
REMARK  243  A    between atoms: _616  and  _619
REMARK  244  A    between atoms: _619  and  _620
REMARK  245  A    between atoms: _630  and  _632
REMARK  246  A    between atoms: _632  and  _633
REMARK  247  A    between atoms: _632  and  _635
REMARK  248  A    between atoms: _635  and  _636
REMARK  249  A    between atoms: _638  and  _640
REMARK  250  A    between atoms: _640  and  _641
REMARK  251  A    between atoms: _640  and  _643
REMARK  252  A    between atoms: _643  and  _644
REMARK  253  A    between atoms: _649  and  _651
REMARK  254  A    between atoms: _651  and  _652
REMARK  255  A    between atoms: _651  and  _654
REMARK  256  A    between atoms: _654  and  _655
REMARK  257  A    between atoms: _661  and  _663
REMARK  258  A    between atoms: _663  and  _664
REMARK  259  A    between atoms: _663  and  _666
REMARK  260  A    between atoms: _666  and  _667
REMARK  261  A    between atoms: _667  and  _668
REMARK  262  A    between atoms: _671  and  _673
REMARK  263  A    between atoms: _673  and  _674
REMARK  264  A    between atoms: _673  and  _676
REMARK  265  A    between atoms: _676  and  _677
REMARK  266  A    between atoms: _687  and  _689
REMARK  267  A    between atoms: _689  and  _690
REMARK  268  A    between atoms: _689  and  _692
REMARK  269  A    between atoms: _692  and  _693
REMARK  270  A    between atoms: _696  and  _698
REMARK  271  A    between atoms: _698  and  _699
REMARK  272  A    between atoms: _698  and  _701
REMARK  273  A    between atoms: _701  and  _702
REMARK  274  A    between atoms: _704  and  _706
REMARK  275  A    between atoms: _706  and  _707
REMARK  276  A    between atoms: _706  and  _709
REMARK  277  A    between atoms: _709  and  _710
REMARK  278  A    between atoms: _712  and  _714
REMARK  279  A    between atoms: _714  and  _715
REMARK  280  A    between atoms: _714  and  _717
REMARK  281  A    between atoms: _717  and  _718
REMARK                            x       y       z     vdW  Elec       q    Type
REMARK                         _______ _______ _______ _____ _____    ______ ____
ROOT
ATOM      1  O   HOH     1      -3.831  -4.563  41.919  0.00  0.00    +0.000 OA
ENDROOT
TORSDOF 0
REMARK  Name = ../refined-set-2016/3f5k/3f5k_pocket.pdb
REMARK  281 active torsions:
REMARK  status: ('A' for Active; 'I' for Inactive)
REMARK    1  A    between atoms: _1  and  _3
REMARK    2  A    between atoms: _3  and  _4
REMARK    3  A    between atoms: _3  and  _6
REMARK    4  A    between atoms: _9  and  _11
REMARK    5  A    between atoms: _11  and  _12
REMARK    6  A    between atoms: _11  and  _14
REMARK    7  A    between atoms: _14  and  _15
REMARK    8  A    between atoms: _18  and  _20
REMARK    9  A    between atoms: _20  and  _21
REMARK   10  A    between atoms: _20  and  _23
REMARK   11  A    between atoms: _23  and  _24
REMARK   12  A    between atoms: _26  and  _28
REMARK   13  A    between atoms: _28  and  _29
REMARK   14  A    between atoms: _32  and  _34
REMARK   15  A    between atoms: _34  and  _35
REMARK   16  A    between atoms: _34  and  _37
REMARK   17  A    between atoms: _37  and  _38
REMARK   18  A    between atoms: _38  and  _39
REMARK   19  A    between atoms: _44  and  _46
REMARK   20  A    between atoms: _46  and  _47
REMARK   21  A    between atoms: _46  and  _49
REMARK   22  A    between atoms: _49  and  _50
REMARK   23  A    between atoms: _50  and  _51
REMARK   24  A    between atoms: _51  and  _52
REMARK   25  A    between atoms: _61  and  _63
REMARK   26  A    between atoms: _63  and  _64
REMARK   27  A    between atoms: _63  and  _66
REMARK   28  A    between atoms: _66  and  _67
REMARK   29  A    between atoms: _72  and  _74
REMARK   30  A    between atoms: _74  and  _75
REMARK   31  A    between atoms: _74  and  _77
REMARK   32  A    between atoms: _77  and  _78
REMARK   33  A    between atoms: _83  and  _85
REMARK   34  A    between atoms: _85  and  _86
REMARK   35  A    between atoms: _85  and  _88
REMARK   36  A    between atoms: _88  and  _89
REMARK   37  A    between atoms: _94  and  _95
REMARK   38  A    between atoms: _97  and  _99
REMARK   39  A    between atoms: _99  and  _100
REMARK   40  A    between atoms: _99  and  _102
REMARK   41  A    between atoms: _102  and  _103
REMARK   42  A    between atoms: _108  and  _110
REMARK   43  A    between atoms: _110  and  _111
REMARK   44  A    between atoms: _110  and  _113
REMARK   45  A    between atoms: _113  and  _114
REMARK   46  A    between atoms: _114  and  _115
REMARK   47  A    between atoms: _120  and  _122
REMARK   48  A    between atoms: _122  and  _123
REMARK   49  A    between atoms: _122  and  _125
REMARK   50  A    between atoms: _125  and  _126
REMARK   51  A    between atoms: _126  and  _127
REMARK   52  A    between atoms: _127  and  _128
REMARK   53  A    between atoms: _137  and  _139
REMARK   54  A    between atoms: _139  and  _140
REMARK   55  A    between atoms: _139  and  _142
REMARK   56  A    between atoms: _142  and  _143
REMARK   57  A    between atoms: _146  and  _148
REMARK   58  A    between atoms: _148  and  _149
REMARK   59  A    between atoms: _148  and  _151
REMARK   60  A    between atoms: _151  and  _152
REMARK   61  A    between atoms: _155  and  _157
REMARK   62  A    between atoms: _157  and  _158
REMARK   63  A    between atoms: _157  and  _160
REMARK   64  A    between atoms: _160  and  _161
REMARK   65  A    between atoms: _164  and  _166
REMARK   66  A    between atoms: _166  and  _167
REMARK   67  A    between atoms: _166  and  _169
REMARK   68  A    between atoms: _169  and  _170
REMARK   69  A    between atoms: _173  and  _175
REMARK   70  A    between atoms: _175  and  _176
REMARK   71  A    between atoms: _175  and  _178
REMARK   72  A    between atoms: _178  and  _179
REMARK   73  A    between atoms: _179  and  _180
REMARK   74  A    between atoms: _185  and  _187
REMARK   75  A    between atoms: _187  and  _188
REMARK   76  A    between atoms: _187  and  _190
REMARK   77  A    between atoms: _190  and  _191
REMARK   78  A    between atoms: _194  and  _196
REMARK   79  A    between atoms: _196  and  _197
REMARK   80  A    between atoms: _196  and  _199
REMARK   81  A    between atoms: _199  and  _200
REMARK   82  A    between atoms: _205  and  _207
REMARK   83  A    between atoms: _207  and  _208
REMARK   84  A    between atoms: _207  and  _210
REMARK   85  A    between atoms: _213  and  _215
REMARK   86  A    between atoms: _215  and  _216
REMARK   87  A    between atoms: _215  and  _218
REMARK   88  A    between atoms: _218  and  _219
REMARK   89  A    between atoms: _222  and  _224
REMARK   90  A    between atoms: _224  and  _225
REMARK   91  A    between atoms: _224  and  _227
REMARK   92  A    between atoms: _227  and  _228
REMARK   93  A    between atoms: _231  and  _233
REMARK   94  A    between atoms: _233  and  _234
REMARK   95  A    between atoms: _233  and  _236
REMARK   96  A    between atoms: _236  and  _237
REMARK   97  A    between atoms: _243  and  _245
REMARK   98  A    between atoms: _245  and  _246
REMARK   99  A    between atoms: _245  and  _248
REMARK  100  A    between atoms: _248  and  _249
REMARK  101  A    between atoms: _254  and  _256
REMARK  102  A    between atoms: _256  and  _257
REMARK  103  A    between atoms: _256  and  _259
REMARK  104  A    between atoms: _259  and  _260
REMARK  105  A    between atoms: _270  and  _272
REMARK  106  A    between atoms: _272  and  _273
REMARK  107  A    between atoms: _272  and  _275
REMARK  108  A    between atoms: _275  and  _276
REMARK  109  A    between atoms: _281  and  _282
REMARK  110  A    between atoms: _284  and  _286
REMARK  111  A    between atoms: _286  and  _287
REMARK  112  A    between atoms: _286  and  _289
REMARK  113  A    between atoms: _289  and  _290
REMARK  114  A    between atoms: _295  and  _297
REMARK  115  A    between atoms: _297  and  _298
REMARK  116  A    between atoms: _297  and  _300
REMARK  117  A    between atoms: _300  and  _301
REMARK  118  A    between atoms: _306  and  _308
REMARK  119  A    between atoms: _308  and  _309
REMARK  120  A    between atoms: _308  and  _311
REMARK  121  A    between atoms: _311  and  _312
REMARK  122  A    between atoms: _312  and  _313
REMARK  123  A    between atoms: _318  and  _320
REMARK  124  A    between atoms: _320  and  _321
REMARK  125  A    between atoms: _320  and  _323
REMARK  126  A    between atoms: _323  and  _324
REMARK  127  A    between atoms: _329  and  _330
REMARK  128  A    between atoms: _332  and  _334
REMARK  129  A    between atoms: _334  and  _335
REMARK  130  A    between atoms: _334  and  _337
REMARK  131  A    between atoms: _337  and  _338
REMARK  132  A    between atoms: _341  and  _343
REMARK  133  A    between atoms: _343  and  _344
REMARK  134  A    between atoms: _347  and  _349
REMARK  135  A    between atoms: _349  and  _350
REMARK  136  A    between atoms: _349  and  _352
REMARK  137  A    between atoms: _352  and  _353
REMARK  138  A    between atoms: _355  and  _357
REMARK  139  A    between atoms: _357  and  _358
REMARK  140  A    between atoms: _357  and  _360
REMARK  141  A    between atoms: _360  and  _361
REMARK  142  A    between atoms: _361  and  _362
REMARK  143  A    between atoms: _364  and  _366
REMARK  144  A    between atoms: _366  and  _367
REMARK  145  A    between atoms: _366  and  _369
REMARK  146  A    between atoms: _369  and  _370
REMARK  147  A    between atoms: _370  and  _371
REMARK  148  A    between atoms: _376  and  _378
REMARK  149  A    between atoms: _378  and  _379
REMARK  150  A    between atoms: _378  and  _381
REMARK  151  A    between atoms: _381  and  _382
REMARK  152  A    between atoms: _384  and  _386
REMARK  153  A    between atoms: _386  and  _387
REMARK  154  A    between atoms: _386  and  _389
REMARK  155  A    between atoms: _389  and  _390
REMARK  156  A    between atoms: _395  and  _396
REMARK  157  A    between atoms: _398  and  _400
REMARK  158  A    between atoms: _400  and  _401
REMARK  159  A    between atoms: _400  and  _403
REMARK  160  A    between atoms: _403  and  _404
REMARK  161  A    between atoms: _406  and  _408
REMARK  162  A    between atoms: _408  and  _409
REMARK  163  A    between atoms: _412  and  _414
REMARK  164  A    between atoms: _414  and  _415
REMARK  165  A    between atoms: _414  and  _417
REMARK  166  A    between atoms: _417  and  _418
REMARK  167  A    between atoms: _428  and  _430
REMARK  168  A    between atoms: _430  and  _431
REMARK  169  A    between atoms: _430  and  _433
REMARK  170  A    between atoms: _433  and  _434
REMARK  171  A    between atoms: _434  and  _435
REMARK  172  A    between atoms: _440  and  _442
REMARK  173  A    between atoms: _442  and  _443
REMARK  174  A    between atoms: _442  and  _445
REMARK  175  A    between atoms: _448  and  _450
REMARK  176  A    between atoms: _450  and  _451
REMARK  177  A    between atoms: _450  and  _453
REMARK  178  A    between atoms: _453  and  _454
REMARK  179  A    between atoms: _457  and  _459
REMARK  180  A    between atoms: _459  and  _460
REMARK  181  A    between atoms: _459  and  _462
REMARK  182  A    between atoms: _462  and  _463
REMARK  183  A    between atoms: _468  and  _469
REMARK  184  A    between atoms: _471  and  _473
REMARK  185  A    between atoms: _473  and  _474
REMARK  186  A    between atoms: _473  and  _476
REMARK  187  A    between atoms: _479  and  _481
REMARK  188  A    between atoms: _481  and  _482
REMARK  189  A    between atoms: _481  and  _484
REMARK  190  A    between atoms: _484  and  _485
REMARK  191  A    between atoms: _491  and  _493
REMARK  192  A    between atoms: _493  and  _494
REMARK  193  A    between atoms: _493  and  _496
REMARK  194  A    between atoms: _496  and  _497
REMARK  195  A    between atoms: _497  and  _498
REMARK  196  A    between atoms: _503  and  _505
REMARK  197  A    between atoms: _505  and  _506
REMARK  198  A    between atoms: _505  and  _508
REMARK  199  A    between atoms: _508  and  _509
REMARK  200  A    between atoms: _511  and  _513
REMARK  201  A    between atoms: _513  and  _514
REMARK  202  A    between atoms: _513  and  _516
REMARK  203  A    between atoms: _516  and  _517
REMARK  204  A    between atoms: _522  and  _524
REMARK  205  A    between atoms: _524  and  _525
REMARK  206  A    between atoms: _524  and  _527
REMARK  207  A    between atoms: _527  and  _528
REMARK  208  A    between atoms: _538  and  _540
REMARK  209  A    between atoms: _540  and  _541
REMARK  210  A    between atoms: _540  and  _543
REMARK  211  A    between atoms: _543  and  _544
REMARK  212  A    between atoms: _547  and  _549
REMARK  213  A    between atoms: _549  and  _550
REMARK  214  A    between atoms: _549  and  _552
REMARK  215  A    between atoms: _552  and  _553
REMARK  216  A    between atoms: _558  and  _559
REMARK  217  A    between atoms: _561  and  _563
REMARK  218  A    between atoms: _563  and  _564
REMARK  219  A    between atoms: _563  and  _566
REMARK  220  A    between atoms: _566  and  _567
REMARK  221  A    between atoms: _570  and  _572
REMARK  222  A    between atoms: _572  and  _573
REMARK  223  A    between atoms: _572  and  _575
REMARK  224  A    between atoms: _575  and  _576
REMARK  225  A    between atoms: _576  and  _577
REMARK  226  A    between atoms: _580  and  _582
REMARK  227  A    between atoms: _582  and  _583
REMARK  228  A    between atoms: _582  and  _585
REMARK  229  A    between atoms: _585  and  _586
REMARK  230  A    between atoms: _591  and  _593
REMARK  231  A    between atoms: _593  and  _594
REMARK  232  A    between atoms: _596  and  _598
REMARK  233  A    between atoms: _598  and  _599
REMARK  234  A    between atoms: _598  and  _601
REMARK  235  A    between atoms: _601  and  _602
REMARK  236  A    between atoms: _602  and  _603
REMARK  237  A    between atoms: _605  and  _607
REMARK  238  A    between atoms: _607  and  _608
REMARK  239  A    between atoms: _607  and  _610
REMARK  240  A    between atoms: _610  and  _611
REMARK  241  A    between atoms: _614  and  _616
REMARK  242  A    between atoms: _616  and  _617
REMARK  243  A    between atoms: _616  and  _619
REMARK  244  A    between atoms: _619  and  _620
REMARK  245  A    between atoms: _630  and  _632
REMARK  246  A    between atoms: _632  and  _633
REMARK  247  A    between atoms: _632  and  _635
REMARK  248  A    between atoms: _635  and  _636
REMARK  249  A    between atoms: _638  and  _640
REMARK  250  A    between atoms: _640  and  _641
REMARK  251  A    between atoms: _640  and  _643
REMARK  252  A    between atoms: _643  and  _644
REMARK  253  A    between atoms: _649  and  _651
REMARK  254  A    between atoms: _651  and  _652
REMARK  255  A    between atoms: _651  and  _654
REMARK  256  A    between atoms: _654  and  _655
REMARK  257  A    between atoms: _661  and  _663
REMARK  258  A    between atoms: _663  and  _664
REMARK  259  A    between atoms: _663  and  _666
REMARK  260  A    between atoms: _666  and  _667
REMARK  261  A    between atoms: _667  and  _668
REMARK  262  A    between atoms: _671  and  _673
REMARK  263  A    between atoms: _673  and  _674
REMARK  264  A    between atoms: _673  and  _676
REMARK  265  A    between atoms: _676  and  _677
REMARK  266  A    between atoms: _687  and  _689
REMARK  267  A    between atoms: _689  and  _690
REMARK  268  A    between atoms: _689  and  _692
REMARK  269  A    between atoms: _692  and  _693
REMARK  270  A    between atoms: _696  and  _698
REMARK  271  A    between atoms: _698  and  _699
REMARK  272  A    between atoms: _698  and  _701
REMARK  273  A    between atoms: _701  and  _702
REMARK  274  A    between atoms: _704  and  _706
REMARK  275  A    between atoms: _706  and  _707
REMARK  276  A    between atoms: _706  and  _709
REMARK  277  A    between atoms: _709  and  _710
REMARK  278  A    between atoms: _712  and  _714
REMARK  279  A    between atoms: _714  and  _715
REMARK  280  A    between atoms: _714  and  _717
REMARK  281  A    between atoms: _717  and  _718
REMARK                            x       y       z     vdW  Elec       q    Type
REMARK                         _______ _______ _______ _____ _____    ______ ____
ROOT
ATOM      1  O   HOH     1      -4.306   3.397  47.111  0.00  0.00    +0.000 OA
ENDROOT
TORSDOF 0
REMARK  Name = ../refined-set-2016/3f5k/3f5k_pocket.pdb
REMARK  281 active torsions:
REMARK  status: ('A' for Active; 'I' for Inactive)
REMARK    1  A    between atoms: _1  and  _3
REMARK    2  A    between atoms: _3  and  _4
REMARK    3  A    between atoms: _3  and  _6
REMARK    4  A    between atoms: _9  and  _11
REMARK    5  A    between atoms: _11  and  _12
REMARK    6  A    between atoms: _11  and  _14
REMARK    7  A    between atoms: _14  and  _15
REMARK    8  A    between atoms: _18  and  _20
REMARK    9  A    between atoms: _20  and  _21
REMARK   10  A    between atoms: _20  and  _23
REMARK   11  A    between atoms: _23  and  _24
REMARK   12  A    between atoms: _26  and  _28
REMARK   13  A    between atoms: _28  and  _29
REMARK   14  A    between atoms: _32  and  _34
REMARK   15  A    between atoms: _34  and  _35
REMARK   16  A    between atoms: _34  and  _37
REMARK   17  A    between atoms: _37  and  _38
REMARK   18  A    between atoms: _38  and  _39
REMARK   19  A    between atoms: _44  and  _46
REMARK   20  A    between atoms: _46  and  _47
REMARK   21  A    between atoms: _46  and  _49
REMARK   22  A    between atoms: _49  and  _50
REMARK   23  A    between atoms: _50  and  _51
REMARK   24  A    between atoms: _51  and  _52
REMARK   25  A    between atoms: _61  and  _63
REMARK   26  A    between atoms: _63  and  _64
REMARK   27  A    between atoms: _63  and  _66
REMARK   28  A    between atoms: _66  and  _67
REMARK   29  A    between atoms: _72  and  _74
REMARK   30  A    between atoms: _74  and  _75
REMARK   31  A    between atoms: _74  and  _77
REMARK   32  A    between atoms: _77  and  _78
REMARK   33  A    between atoms: _83  and  _85
REMARK   34  A    between atoms: _85  and  _86
REMARK   35  A    between atoms: _85  and  _88
REMARK   36  A    between atoms: _88  and  _89
REMARK   37  A    between atoms: _94  and  _95
REMARK   38  A    between atoms: _97  and  _99
REMARK   39  A    between atoms: _99  and  _100
REMARK   40  A    between atoms: _99  and  _102
REMARK   41  A    between atoms: _102  and  _103
REMARK   42  A    between atoms: _108  and  _110
REMARK   43  A    between atoms: _110  and  _111
REMARK   44  A    between atoms: _110  and  _113
REMARK   45  A    between atoms: _113  and  _114
REMARK   46  A    between atoms: _114  and  _115
REMARK   47  A    between atoms: _120  and  _122
REMARK   48  A    between atoms: _122  and  _123
REMARK   49  A    between atoms: _122  and  _125
REMARK   50  A    between atoms: _125  and  _126
REMARK   51  A    between atoms: _126  and  _127
REMARK   52  A    between atoms: _127  and  _128
REMARK   53  A    between atoms: _137  and  _139
REMARK   54  A    between atoms: _139  and  _140
REMARK   55  A    between atoms: _139  and  _142
REMARK   56  A    between atoms: _142  and  _143
REMARK   57  A    between atoms: _146  and  _148
REMARK   58  A    between atoms: _148  and  _149
REMARK   59  A    between atoms: _148  and  _151
REMARK   60  A    between atoms: _151  and  _152
REMARK   61  A    between atoms: _155  and  _157
REMARK   62  A    between atoms: _157  and  _158
REMARK   63  A    between atoms: _157  and  _160
REMARK   64  A    between atoms: _160  and  _161
REMARK   65  A    between atoms: _164  and  _166
REMARK   66  A    between atoms: _166  and  _167
REMARK   67  A    between atoms: _166  and  _169
REMARK   68  A    between atoms: _169  and  _170
REMARK   69  A    between atoms: _173  and  _175
REMARK   70  A    between atoms: _175  and  _176
REMARK   71  A    between atoms: _175  and  _178
REMARK   72  A    between atoms: _178  and  _179
REMARK   73  A    between atoms: _179  and  _180
REMARK   74  A    between atoms: _185  and  _187
REMARK   75  A    between atoms: _187  and  _188
REMARK   76  A    between atoms: _187  and  _190
REMARK   77  A    between atoms: _190  and  _191
REMARK   78  A    between atoms: _194  and  _196
REMARK   79  A    between atoms: _196  and  _197
REMARK   80  A    between atoms: _196  and  _199
REMARK   81  A    between atoms: _199  and  _200
REMARK   82  A    between atoms: _205  and  _207
REMARK   83  A    between atoms: _207  and  _208
REMARK   84  A    between atoms: _207  and  _210
REMARK   85  A    between atoms: _213  and  _215
REMARK   86  A    between atoms: _215  and  _216
REMARK   87  A    between atoms: _215  and  _218
REMARK   88  A    between atoms: _218  and  _219
REMARK   89  A    between atoms: _222  and  _224
REMARK   90  A    between atoms: _224  and  _225
REMARK   91  A    between atoms: _224  and  _227
REMARK   92  A    between atoms: _227  and  _228
REMARK   93  A    between atoms: _231  and  _233
REMARK   94  A    between atoms: _233  and  _234
REMARK   95  A    between atoms: _233  and  _236
REMARK   96  A    between atoms: _236  and  _237
REMARK   97  A    between atoms: _243  and  _245
REMARK   98  A    between atoms: _245  and  _246
REMARK   99  A    between atoms: _245  and  _248
REMARK  100  A    between atoms: _248  and  _249
REMARK  101  A    between atoms: _254  and  _256
REMARK  102  A    between atoms: _256  and  _257
REMARK  103  A    between atoms: _256  and  _259
REMARK  104  A    between atoms: _259  and  _260
REMARK  105  A    between atoms: _270  and  _272
REMARK  106  A    between atoms: _272  and  _273
REMARK  107  A    between atoms: _272  and  _275
REMARK  108  A    between atoms: _275  and  _276
REMARK  109  A    between atoms: _281  and  _282
REMARK  110  A    between atoms: _284  and  _286
REMARK  111  A    between atoms: _286  and  _287
REMARK  112  A    between atoms: _286  and  _289
REMARK  113  A    between atoms: _289  and  _290
REMARK  114  A    between atoms: _295  and  _297
REMARK  115  A    between atoms: _297  and  _298
REMARK  116  A    between atoms: _297  and  _300
REMARK  117  A    between atoms: _300  and  _301
REMARK  118  A    between atoms: _306  and  _308
REMARK  119  A    between atoms: _308  and  _309
REMARK  120  A    between atoms: _308  and  _311
REMARK  121  A    between atoms: _311  and  _312
REMARK  122  A    between atoms: _312  and  _313
REMARK  123  A    between atoms: _318  and  _320
REMARK  124  A    between atoms: _320  and  _321
REMARK  125  A    between atoms: _320  and  _323
REMARK  126  A    between atoms: _323  and  _324
REMARK  127  A    between atoms: _329  and  _330
REMARK  128  A    between atoms: _332  and  _334
REMARK  129  A    between atoms: _334  and  _335
REMARK  130  A    between atoms: _334  and  _337
REMARK  131  A    between atoms: _337  and  _338
REMARK  132  A    between atoms: _341  and  _343
REMARK  133  A    between atoms: _343  and  _344
REMARK  134  A    between atoms: _347  and  _349
REMARK  135  A    between atoms: _349  and  _350
REMARK  136  A    between atoms: _349  and  _352
REMARK  137  A    between atoms: _352  and  _353
REMARK  138  A    between atoms: _355  and  _357
REMARK  139  A    between atoms: _357  and  _358
REMARK  140  A    between atoms: _357  and  _360
REMARK  141  A    between atoms: _360  and  _361
REMARK  142  A    between atoms: _361  and  _362
REMARK  143  A    between atoms: _364  and  _366
REMARK  144  A    between atoms: _366  and  _367
REMARK  145  A    between atoms: _366  and  _369
REMARK  146  A    between atoms: _369  and  _370
REMARK  147  A    between atoms: _370  and  _371
REMARK  148  A    between atoms: _376  and  _378
REMARK  149  A    between atoms: _378  and  _379
REMARK  150  A    between atoms: _378  and  _381
REMARK  151  A    between atoms: _381  and  _382
REMARK  152  A    between atoms: _384  and  _386
REMARK  153  A    between atoms: _386  and  _387
REMARK  154  A    between atoms: _386  and  _389
REMARK  155  A    between atoms: _389  and  _390
REMARK  156  A    between atoms: _395  and  _396
REMARK  157  A    between atoms: _398  and  _400
REMARK  158  A    between atoms: _400  and  _401
REMARK  159  A    between atoms: _400  and  _403
REMARK  160  A    between atoms: _403  and  _404
REMARK  161  A    between atoms: _406  and  _408
REMARK  162  A    between atoms: _408  and  _409
REMARK  163  A    between atoms: _412  and  _414
REMARK  164  A    between atoms: _414  and  _415
REMARK  165  A    between atoms: _414  and  _417
REMARK  166  A    between atoms: _417  and  _418
REMARK  167  A    between atoms: _428  and  _430
REMARK  168  A    between atoms: _430  and  _431
REMARK  169  A    between atoms: _430  and  _433
REMARK  170  A    between atoms: _433  and  _434
REMARK  171  A    between atoms: _434  and  _435
REMARK  172  A    between atoms: _440  and  _442
REMARK  173  A    between atoms: _442  and  _443
REMARK  174  A    between atoms: _442  and  _445
REMARK  175  A    between atoms: _448  and  _450
REMARK  176  A    between atoms: _450  and  _451
REMARK  177  A    between atoms: _450  and  _453
REMARK  178  A    between atoms: _453  and  _454
REMARK  179  A    between atoms: _457  and  _459
REMARK  180  A    between atoms: _459  and  _460
REMARK  181  A    between atoms: _459  and  _462
REMARK  182  A    between atoms: _462  and  _463
REMARK  183  A    between atoms: _468  and  _469
REMARK  184  A    between atoms: _471  and  _473
REMARK  185  A    between atoms: _473  and  _474
REMARK  186  A    between atoms: _473  and  _476
REMARK  187  A    between atoms: _479  and  _481
REMARK  188  A    between atoms: _481  and  _482
REMARK  189  A    between atoms: _481  and  _484
REMARK  190  A    between atoms: _484  and  _485
REMARK  191  A    between atoms: _491  and  _493
REMARK  192  A    between atoms: _493  and  _494
REMARK  193  A    between atoms: _493  and  _496
REMARK  194  A    between atoms: _496  and  _497
REMARK  195  A    between atoms: _497  and  _498
REMARK  196  A    between atoms: _503  and  _505
REMARK  197  A    between atoms: _505  and  _506
REMARK  198  A    between atoms: _505  and  _508
REMARK  199  A    between atoms: _508  and  _509
REMARK  200  A    between atoms: _511  and  _513
REMARK  201  A    between atoms: _513  and  _514
REMARK  202  A    between atoms: _513  and  _516
REMARK  203  A    between atoms: _516  and  _517
REMARK  204  A    between atoms: _522  and  _524
REMARK  205  A    between atoms: _524  and  _525
REMARK  206  A    between atoms: _524  and  _527
REMARK  207  A    between atoms: _527  and  _528
REMARK  208  A    between atoms: _538  and  _540
REMARK  209  A    between atoms: _540  and  _541
REMARK  210  A    between atoms: _540  and  _543
REMARK  211  A    between atoms: _543  and  _544
REMARK  212  A    between atoms: _547  and  _549
REMARK  213  A    between atoms: _549  and  _550
REMARK  214  A    between atoms: _549  and  _552
REMARK  215  A    between atoms: _552  and  _553
REMARK  216  A    between atoms: _558  and  _559
REMARK  217  A    between atoms: _561  and  _563
REMARK  218  A    between atoms: _563  and  _564
REMARK  219  A    between atoms: _563  and  _566
REMARK  220  A    between atoms: _566  and  _567
REMARK  221  A    between atoms: _570  and  _572
REMARK  222  A    between atoms: _572  and  _573
REMARK  223  A    between atoms: _572  and  _575
REMARK  224  A    between atoms: _575  and  _576
REMARK  225  A    between atoms: _576  and  _577
REMARK  226  A    between atoms: _580  and  _582
REMARK  227  A    between atoms: _582  and  _583
REMARK  228  A    between atoms: _582  and  _585
REMARK  229  A    between atoms: _585  and  _586
REMARK  230  A    between atoms: _591  and  _593
REMARK  231  A    between atoms: _593  and  _594
REMARK  232  A    between atoms: _596  and  _598
REMARK  233  A    between atoms: _598  and  _599
REMARK  234  A    between atoms: _598  and  _601
REMARK  235  A    between atoms: _601  and  _602
REMARK  236  A    between atoms: _602  and  _603
REMARK  237  A    between atoms: _605  and  _607
REMARK  238  A    between atoms: _607  and  _608
REMARK  239  A    between atoms: _607  and  _610
REMARK  240  A    between atoms: _610  and  _611
REMARK  241  A    between atoms: _614  and  _616
REMARK  242  A    between atoms: _616  and  _617
REMARK  243  A    between atoms: _616  and  _619
REMARK  244  A    between atoms: _619  and  _620
REMARK  245  A    between atoms: _630  and  _632
REMARK  246  A    between atoms: _632  and  _633
REMARK  247  A    between atoms: _632  and  _635
REMARK  248  A    between atoms: _635  and  _636
REMARK  249  A    between atoms: _638  and  _640
REMARK  250  A    between atoms: _640  and  _641
REMARK  251  A    between atoms: _640  and  _643
REMARK  252  A    between atoms: _643  and  _644
REMARK  253  A    between atoms: _649  and  _651
REMARK  254  A    between atoms: _651  and  _652
REMARK  255  A    between atoms: _651  and  _654
REMARK  256  A    between atoms: _654  and  _655
REMARK  257  A    between atoms: _661  and  _663
REMARK  258  A    between atoms: _663  and  _664
REMARK  259  A    between atoms: _663  and  _666
REMARK  260  A    between atoms: _666  and  _667
REMARK  261  A    between atoms: _667  and  _668
REMARK  262  A    between atoms: _671  and  _673
REMARK  263  A    between atoms: _673  and  _674
REMARK  264  A    between atoms: _673  and  _676
REMARK  265  A    between atoms: _676  and  _677
REMARK  266  A    between atoms: _687  and  _689
REMARK  267  A    between atoms: _689  and  _690
REMARK  268  A    between atoms: _689  and  _692
REMARK  269  A    between atoms: _692  and  _693
REMARK  270  A    between atoms: _696  and  _698
REMARK  271  A    between atoms: _698  and  _699
REMARK  272  A    between atoms: _698  and  _701
REMARK  273  A    between atoms: _701  and  _702
REMARK  274  A    between atoms: _704  and  _706
REMARK  275  A    between atoms: _706  and  _707
REMARK  276  A    between atoms: _706  and  _709
REMARK  277  A    between atoms: _709  and  _710
REMARK  278  A    between atoms: _712  and  _714
REMARK  279  A    between atoms: _714  and  _715
REMARK  280  A    between atoms: _714  and  _717
REMARK  281  A    between atoms: _717  and  _718
REMARK                            x       y       z     vdW  Elec       q    Type
REMARK                         _______ _______ _______ _____ _____    ______ ____
ROOT
ATOM      1  O   HOH     1      -0.463  -5.370  49.790  0.00  0.00    +0.000 OA
ENDROOT
TORSDOF 0
REMARK  Name = ../refined-set-2016/3f5k/3f5k_pocket.pdb
REMARK  281 active torsions:
REMARK  status: ('A' for Active; 'I' for Inactive)
REMARK    1  A    between atoms: _1  and  _3
REMARK    2  A    between atoms: _3  and  _4
REMARK    3  A    between atoms: _3  and  _6
REMARK    4  A    between atoms: _9  and  _11
REMARK    5  A    between atoms: _11  and  _12
REMARK    6  A    between atoms: _11  and  _14
REMARK    7  A    between atoms: _14  and  _15
REMARK    8  A    between atoms: _18  and  _20
REMARK    9  A    between atoms: _20  and  _21
REMARK   10  A    between atoms: _20  and  _23
REMARK   11  A    between atoms: _23  and  _24
REMARK   12  A    between atoms: _26  and  _28
REMARK   13  A    between atoms: _28  and  _29
REMARK   14  A    between atoms: _32  and  _34
REMARK   15  A    between atoms: _34  and  _35
REMARK   16  A    between atoms: _34  and  _37
REMARK   17  A    between atoms: _37  and  _38
REMARK   18  A    between atoms: _38  and  _39
REMARK   19  A    between atoms: _44  and  _46
REMARK   20  A    between atoms: _46  and  _47
REMARK   21  A    between atoms: _46  and  _49
REMARK   22  A    between atoms: _49  and  _50
REMARK   23  A    between atoms: _50  and  _51
REMARK   24  A    between atoms: _51  and  _52
REMARK   25  A    between atoms: _61  and  _63
REMARK   26  A    between atoms: _63  and  _64
REMARK   27  A    between atoms: _63  and  _66
REMARK   28  A    between atoms: _66  and  _67
REMARK   29  A    between atoms: _72  and  _74
REMARK   30  A    between atoms: _74  and  _75
REMARK   31  A    between atoms: _74  and  _77
REMARK   32  A    between atoms: _77  and  _78
REMARK   33  A    between atoms: _83  and  _85
REMARK   34  A    between atoms: _85  and  _86
REMARK   35  A    between atoms: _85  and  _88
REMARK   36  A    between atoms: _88  and  _89
REMARK   37  A    between atoms: _94  and  _95
REMARK   38  A    between atoms: _97  and  _99
REMARK   39  A    between atoms: _99  and  _100
REMARK   40  A    between atoms: _99  and  _102
REMARK   41  A    between atoms: _102  and  _103
REMARK   42  A    between atoms: _108  and  _110
REMARK   43  A    between atoms: _110  and  _111
REMARK   44  A    between atoms: _110  and  _113
REMARK   45  A    between atoms: _113  and  _114
REMARK   46  A    between atoms: _114  and  _115
REMARK   47  A    between atoms: _120  and  _122
REMARK   48  A    between atoms: _122  and  _123
REMARK   49  A    between atoms: _122  and  _125
REMARK   50  A    between atoms: _125  and  _126
REMARK   51  A    between atoms: _126  and  _127
REMARK   52  A    between atoms: _127  and  _128
REMARK   53  A    between atoms: _137  and  _139
REMARK   54  A    between atoms: _139  and  _140
REMARK   55  A    between atoms: _139  and  _142
REMARK   56  A    between atoms: _142  and  _143
REMARK   57  A    between atoms: _146  and  _148
REMARK   58  A    between atoms: _148  and  _149
REMARK   59  A    between atoms: _148  and  _151
REMARK   60  A    between atoms: _151  and  _152
REMARK   61  A    between atoms: _155  and  _157
REMARK   62  A    between atoms: _157  and  _158
REMARK   63  A    between atoms: _157  and  _160
REMARK   64  A    between atoms: _160  and  _161
REMARK   65  A    between atoms: _164  and  _166
REMARK   66  A    between atoms: _166  and  _167
REMARK   67  A    between atoms: _166  and  _169
REMARK   68  A    between atoms: _169  and  _170
REMARK   69  A    between atoms: _173  and  _175
REMARK   70  A    between atoms: _175  and  _176
REMARK   71  A    between atoms: _175  and  _178
REMARK   72  A    between atoms: _178  and  _179
REMARK   73  A    between atoms: _179  and  _180
REMARK   74  A    between atoms: _185  and  _187
REMARK   75  A    between atoms: _187  and  _188
REMARK   76  A    between atoms: _187  and  _190
REMARK   77  A    between atoms: _190  and  _191
REMARK   78  A    between atoms: _194  and  _196
REMARK   79  A    between atoms: _196  and  _197
REMARK   80  A    between atoms: _196  and  _199
REMARK   81  A    between atoms: _199  and  _200
REMARK   82  A    between atoms: _205  and  _207
REMARK   83  A    between atoms: _207  and  _208
REMARK   84  A    between atoms: _207  and  _210
REMARK   85  A    between atoms: _213  and  _215
REMARK   86  A    between atoms: _215  and  _216
REMARK   87  A    between atoms: _215  and  _218
REMARK   88  A    between atoms: _218  and  _219
REMARK   89  A    between atoms: _222  and  _224
REMARK   90  A    between atoms: _224  and  _225
REMARK   91  A    between atoms: _224  and  _227
REMARK   92  A    between atoms: _227  and  _228
REMARK   93  A    between atoms: _231  and  _233
REMARK   94  A    between atoms: _233  and  _234
REMARK   95  A    between atoms: _233  and  _236
REMARK   96  A    between atoms: _236  and  _237
REMARK   97  A    between atoms: _243  and  _245
REMARK   98  A    between atoms: _245  and  _246
REMARK   99  A    between atoms: _245  and  _248
REMARK  100  A    between atoms: _248  and  _249
REMARK  101  A    between atoms: _254  and  _256
REMARK  102  A    between atoms: _256  and  _257
REMARK  103  A    between atoms: _256  and  _259
REMARK  104  A    between atoms: _259  and  _260
REMARK  105  A    between atoms: _270  and  _272
REMARK  106  A    between atoms: _272  and  _273
REMARK  107  A    between atoms: _272  and  _275
REMARK  108  A    between atoms: _275  and  _276
REMARK  109  A    between atoms: _281  and  _282
REMARK  110  A    between atoms: _284  and  _286
REMARK  111  A    between atoms: _286  and  _287
REMARK  112  A    between atoms: _286  and  _289
REMARK  113  A    between atoms: _289  and  _290
REMARK  114  A    between atoms: _295  and  _297
REMARK  115  A    between atoms: _297  and  _298
REMARK  116  A    between atoms: _297  and  _300
REMARK  117  A    between atoms: _300  and  _301
REMARK  118  A    between atoms: _306  and  _308
REMARK  119  A    between atoms: _308  and  _309
REMARK  120  A    between atoms: _308  and  _311
REMARK  121  A    between atoms: _311  and  _312
REMARK  122  A    between atoms: _312  and  _313
REMARK  123  A    between atoms: _318  and  _320
REMARK  124  A    between atoms: _320  and  _321
REMARK  125  A    between atoms: _320  and  _323
REMARK  126  A    between atoms: _323  and  _324
REMARK  127  A    between atoms: _329  and  _330
REMARK  128  A    between atoms: _332  and  _334
REMARK  129  A    between atoms: _334  and  _335
REMARK  130  A    between atoms: _334  and  _337
REMARK  131  A    between atoms: _337  and  _338
REMARK  132  A    between atoms: _341  and  _343
REMARK  133  A    between atoms: _343  and  _344
REMARK  134  A    between atoms: _347  and  _349
REMARK  135  A    between atoms: _349  and  _350
REMARK  136  A    between atoms: _349  and  _352
REMARK  137  A    between atoms: _352  and  _353
REMARK  138  A    between atoms: _355  and  _357
REMARK  139  A    between atoms: _357  and  _358
REMARK  140  A    between atoms: _357  and  _360
REMARK  141  A    between atoms: _360  and  _361
REMARK  142  A    between atoms: _361  and  _362
REMARK  143  A    between atoms: _364  and  _366
REMARK  144  A    between atoms: _366  and  _367
REMARK  145  A    between atoms: _366  and  _369
REMARK  146  A    between atoms: _369  and  _370
REMARK  147  A    between atoms: _370  and  _371
REMARK  148  A    between atoms: _376  and  _378
REMARK  149  A    between atoms: _378  and  _379
REMARK  150  A    between atoms: _378  and  _381
REMARK  151  A    between atoms: _381  and  _382
REMARK  152  A    between atoms: _384  and  _386
REMARK  153  A    between atoms: _386  and  _387
REMARK  154  A    between atoms: _386  and  _389
REMARK  155  A    between atoms: _389  and  _390
REMARK  156  A    between atoms: _395  and  _396
REMARK  157  A    between atoms: _398  and  _400
REMARK  158  A    between atoms: _400  and  _401
REMARK  159  A    between atoms: _400  and  _403
REMARK  160  A    between atoms: _403  and  _404
REMARK  161  A    between atoms: _406  and  _408
REMARK  162  A    between atoms: _408  and  _409
REMARK  163  A    between atoms: _412  and  _414
REMARK  164  A    between atoms: _414  and  _415
REMARK  165  A    between atoms: _414  and  _417
REMARK  166  A    between atoms: _417  and  _418
REMARK  167  A    between atoms: _428  and  _430
REMARK  168  A    between atoms: _430  and  _431
REMARK  169  A    between atoms: _430  and  _433
REMARK  170  A    between atoms: _433  and  _434
REMARK  171  A    between atoms: _434  and  _435
REMARK  172  A    between atoms: _440  and  _442
REMARK  173  A    between atoms: _442  and  _443
REMARK  174  A    between atoms: _442  and  _445
REMARK  175  A    between atoms: _448  and  _450
REMARK  176  A    between atoms: _450  and  _451
REMARK  177  A    between atoms: _450  and  _453
REMARK  178  A    between atoms: _453  and  _454
REMARK  179  A    between atoms: _457  and  _459
REMARK  180  A    between atoms: _459  and  _460
REMARK  181  A    between atoms: _459  and  _462
REMARK  182  A    between atoms: _462  and  _463
REMARK  183  A    between atoms: _468  and  _469
REMARK  184  A    between atoms: _471  and  _473
REMARK  185  A    between atoms: _473  and  _474
REMARK  186  A    between atoms: _473  and  _476
REMARK  187  A    between atoms: _479  and  _481
REMARK  188  A    between atoms: _481  and  _482
REMARK  189  A    between atoms: _481  and  _484
REMARK  190  A    between atoms: _484  and  _485
REMARK  191  A    between atoms: _491  and  _493
REMARK  192  A    between atoms: _493  and  _494
REMARK  193  A    between atoms: _493  and  _496
REMARK  194  A    between atoms: _496  and  _497
REMARK  195  A    between atoms: _497  and  _498
REMARK  196  A    between atoms: _503  and  _505
REMARK  197  A    between atoms: _505  and  _506
REMARK  198  A    between atoms: _505  and  _508
REMARK  199  A    between atoms: _508  and  _509
REMARK  200  A    between atoms: _511  and  _513
REMARK  201  A    between atoms: _513  and  _514
REMARK  202  A    between atoms: _513  and  _516
REMARK  203  A    between atoms: _516  and  _517
REMARK  204  A    between atoms: _522  and  _524
REMARK  205  A    between atoms: _524  and  _525
REMARK  206  A    between atoms: _524  and  _527
REMARK  207  A    between atoms: _527  and  _528
REMARK  208  A    between atoms: _538  and  _540
REMARK  209  A    between atoms: _540  and  _541
REMARK  210  A    between atoms: _540  and  _543
REMARK  211  A    between atoms: _543  and  _544
REMARK  212  A    between atoms: _547  and  _549
REMARK  213  A    between atoms: _549  and  _550
REMARK  214  A    between atoms: _549  and  _552
REMARK  215  A    between atoms: _552  and  _553
REMARK  216  A    between atoms: _558  and  _559
REMARK  217  A    between atoms: _561  and  _563
REMARK  218  A    between atoms: _563  and  _564
REMARK  219  A    between atoms: _563  and  _566
REMARK  220  A    between atoms: _566  and  _567
REMARK  221  A    between atoms: _570  and  _572
REMARK  222  A    between atoms: _572  and  _573
REMARK  223  A    between atoms: _572  and  _575
REMARK  224  A    between atoms: _575  and  _576
REMARK  225  A    between atoms: _576  and  _577
REMARK  226  A    between atoms: _580  and  _582
REMARK  227  A    between atoms: _582  and  _583
REMARK  228  A    between atoms: _582  and  _585
REMARK  229  A    between atoms: _585  and  _586
REMARK  230  A    between atoms: _591  and  _593
REMARK  231  A    between atoms: _593  and  _594
REMARK  232  A    between atoms: _596  and  _598
REMARK  233  A    between atoms: _598  and  _599
REMARK  234  A    between atoms: _598  and  _601
REMARK  235  A    between atoms: _601  and  _602
REMARK  236  A    between atoms: _602  and  _603
REMARK  237  A    between atoms: _605  and  _607
REMARK  238  A    between atoms: _607  and  _608
REMARK  239  A    between atoms: _607  and  _610
REMARK  240  A    between atoms: _610  and  _611
REMARK  241  A    between atoms: _614  and  _616
REMARK  242  A    between atoms: _616  and  _617
REMARK  243  A    between atoms: _616  and  _619
REMARK  244  A    between atoms: _619  and  _620
REMARK  245  A    between atoms: _630  and  _632
REMARK  246  A    between atoms: _632  and  _633
REMARK  247  A    between atoms: _632  and  _635
REMARK  248  A    between atoms: _635  and  _636
REMARK  249  A    between atoms: _638  and  _640
REMARK  250  A    between atoms: _640  and  _641
REMARK  251  A    between atoms: _640  and  _643
REMARK  252  A    between atoms: _643  and  _644
REMARK  253  A    between atoms: _649  and  _651
REMARK  254  A    between atoms: _651  and  _652
REMARK  255  A    between atoms: _651  and  _654
REMARK  256  A    between atoms: _654  and  _655
REMARK  257  A    between atoms: _661  and  _663
REMARK  258  A    between atoms: _663  and  _664
REMARK  259  A    between atoms: _663  and  _666
REMARK  260  A    between atoms: _666  and  _667
REMARK  261  A    between atoms: _667  and  _668
REMARK  262  A    between atoms: _671  and  _673
REMARK  263  A    between atoms: _673  and  _674
REMARK  264  A    between atoms: _673  and  _676
REMARK  265  A    between atoms: _676  and  _677
REMARK  266  A    between atoms: _687  and  _689
REMARK  267  A    between atoms: _689  and  _690
REMARK  268  A    between atoms: _689  and  _692
REMARK  269  A    between atoms: _692  and  _693
REMARK  270  A    between atoms: _696  and  _698
REMARK  271  A    between atoms: _698  and  _699
REMARK  272  A    between atoms: _698  and  _701
REMARK  273  A    between atoms: _701  and  _702
REMARK  274  A    between atoms: _704  and  _706
REMARK  275  A    between atoms: _706  and  _707
REMARK  276  A    between atoms: _706  and  _709
REMARK  277  A    between atoms: _709  and  _710
REMARK  278  A    between atoms: _712  and  _714
REMARK  279  A    between atoms: _714  and  _715
REMARK  280  A    between atoms: _714  and  _717
REMARK  281  A    between atoms: _717  and  _718
REMARK                            x       y       z     vdW  Elec       q    Type
REMARK                         _______ _______ _______ _____ _____    ______ ____
ROOT
ATOM      1  O   HOH     1      -2.045 -10.689  55.031  0.00  0.00    +0.000 OA
ENDROOT
TORSDOF 0
REMARK  Name = ../refined-set-2016/3f5k/3f5k_pocket.pdb
REMARK  281 active torsions:
REMARK  status: ('A' for Active; 'I' for Inactive)
REMARK    1  A    between atoms: _1  and  _3
REMARK    2  A    between atoms: _3  and  _4
REMARK    3  A    between atoms: _3  and  _6
REMARK    4  A    between atoms: _9  and  _11
REMARK    5  A    between atoms: _11  and  _12
REMARK    6  A    between atoms: _11  and  _14
REMARK    7  A    between atoms: _14  and  _15
REMARK    8  A    between atoms: _18  and  _20
REMARK    9  A    between atoms: _20  and  _21
REMARK   10  A    between atoms: _20  and  _23
REMARK   11  A    between atoms: _23  and  _24
REMARK   12  A    between atoms: _26  and  _28
REMARK   13  A    between atoms: _28  and  _29
REMARK   14  A    between atoms: _32  and  _34
REMARK   15  A    between atoms: _34  and  _35
REMARK   16  A    between atoms: _34  and  _37
REMARK   17  A    between atoms: _37  and  _38
REMARK   18  A    between atoms: _38  and  _39
REMARK   19  A    between atoms: _44  and  _46
REMARK   20  A    between atoms: _46  and  _47
REMARK   21  A    between atoms: _46  and  _49
REMARK   22  A    between atoms: _49  and  _50
REMARK   23  A    between atoms: _50  and  _51
REMARK   24  A    between atoms: _51  and  _52
REMARK   25  A    between atoms: _61  and  _63
REMARK   26  A    between atoms: _63  and  _64
REMARK   27  A    between atoms: _63  and  _66
REMARK   28  A    between atoms: _66  and  _67
REMARK   29  A    between atoms: _72  and  _74
REMARK   30  A    between atoms: _74  and  _75
REMARK   31  A    between atoms: _74  and  _77
REMARK   32  A    between atoms: _77  and  _78
REMARK   33  A    between atoms: _83  and  _85
REMARK   34  A    between atoms: _85  and  _86
REMARK   35  A    between atoms: _85  and  _88
REMARK   36  A    between atoms: _88  and  _89
REMARK   37  A    between atoms: _94  and  _95
REMARK   38  A    between atoms: _97  and  _99
REMARK   39  A    between atoms: _99  and  _100
REMARK   40  A    between atoms: _99  and  _102
REMARK   41  A    between atoms: _102  and  _103
REMARK   42  A    between atoms: _108  and  _110
REMARK   43  A    between atoms: _110  and  _111
REMARK   44  A    between atoms: _110  and  _113
REMARK   45  A    between atoms: _113  and  _114
REMARK   46  A    between atoms: _114  and  _115
REMARK   47  A    between atoms: _120  and  _122
REMARK   48  A    between atoms: _122  and  _123
REMARK   49  A    between atoms: _122  and  _125
REMARK   50  A    between atoms: _125  and  _126
REMARK   51  A    between atoms: _126  and  _127
REMARK   52  A    between atoms: _127  and  _128
REMARK   53  A    between atoms: _137  and  _139
REMARK   54  A    between atoms: _139  and  _140
REMARK   55  A    between atoms: _139  and  _142
REMARK   56  A    between atoms: _142  and  _143
REMARK   57  A    between atoms: _146  and  _148
REMARK   58  A    between atoms: _148  and  _149
REMARK   59  A    between atoms: _148  and  _151
REMARK   60  A    between atoms: _151  and  _152
REMARK   61  A    between atoms: _155  and  _157
REMARK   62  A    between atoms: _157  and  _158
REMARK   63  A    between atoms: _157  and  _160
REMARK   64  A    between atoms: _160  and  _161
REMARK   65  A    between atoms: _164  and  _166
REMARK   66  A    between atoms: _166  and  _167
REMARK   67  A    between atoms: _166  and  _169
REMARK   68  A    between atoms: _169  and  _170
REMARK   69  A    between atoms: _173  and  _175
REMARK   70  A    between atoms: _175  and  _176
REMARK   71  A    between atoms: _175  and  _178
REMARK   72  A    between atoms: _178  and  _179
REMARK   73  A    between atoms: _179  and  _180
REMARK   74  A    between atoms: _185  and  _187
REMARK   75  A    between atoms: _187  and  _188
REMARK   76  A    between atoms: _187  and  _190
REMARK   77  A    between atoms: _190  and  _191
REMARK   78  A    between atoms: _194  and  _196
REMARK   79  A    between atoms: _196  and  _197
REMARK   80  A    between atoms: _196  and  _199
REMARK   81  A    between atoms: _199  and  _200
REMARK   82  A    between atoms: _205  and  _207
REMARK   83  A    between atoms: _207  and  _208
REMARK   84  A    between atoms: _207  and  _210
REMARK   85  A    between atoms: _213  and  _215
REMARK   86  A    between atoms: _215  and  _216
REMARK   87  A    between atoms: _215  and  _218
REMARK   88  A    between atoms: _218  and  _219
REMARK   89  A    between atoms: _222  and  _224
REMARK   90  A    between atoms: _224  and  _225
REMARK   91  A    between atoms: _224  and  _227
REMARK   92  A    between atoms: _227  and  _228
REMARK   93  A    between atoms: _231  and  _233
REMARK   94  A    between atoms: _233  and  _234
REMARK   95  A    between atoms: _233  and  _236
REMARK   96  A    between atoms: _236  and  _237
REMARK   97  A    between atoms: _243  and  _245
REMARK   98  A    between atoms: _245  and  _246
REMARK   99  A    between atoms: _245  and  _248
REMARK  100  A    between atoms: _248  and  _249
REMARK  101  A    between atoms: _254  and  _256
REMARK  102  A    between atoms: _256  and  _257
REMARK  103  A    between atoms: _256  and  _259
REMARK  104  A    between atoms: _259  and  _260
REMARK  105  A    between atoms: _270  and  _272
REMARK  106  A    between atoms: _272  and  _273
REMARK  107  A    between atoms: _272  and  _275
REMARK  108  A    between atoms: _275  and  _276
REMARK  109  A    between atoms: _281  and  _282
REMARK  110  A    between atoms: _284  and  _286
REMARK  111  A    between atoms: _286  and  _287
REMARK  112  A    between atoms: _286  and  _289
REMARK  113  A    between atoms: _289  and  _290
REMARK  114  A    between atoms: _295  and  _297
REMARK  115  A    between atoms: _297  and  _298
REMARK  116  A    between atoms: _297  and  _300
REMARK  117  A    between atoms: _300  and  _301
REMARK  118  A    between atoms: _306  and  _308
REMARK  119  A    between atoms: _308  and  _309
REMARK  120  A    between atoms: _308  and  _311
REMARK  121  A    between atoms: _311  and  _312
REMARK  122  A    between atoms: _312  and  _313
REMARK  123  A    between atoms: _318  and  _320
REMARK  124  A    between atoms: _320  and  _321
REMARK  125  A    between atoms: _320  and  _323
REMARK  126  A    between atoms: _323  and  _324
REMARK  127  A    between atoms: _329  and  _330
REMARK  128  A    between atoms: _332  and  _334
REMARK  129  A    between atoms: _334  and  _335
REMARK  130  A    between atoms: _334  and  _337
REMARK  131  A    between atoms: _337  and  _338
REMARK  132  A    between atoms: _341  and  _343
REMARK  133  A    between atoms: _343  and  _344
REMARK  134  A    between atoms: _347  and  _349
REMARK  135  A    between atoms: _349  and  _350
REMARK  136  A    between atoms: _349  and  _352
REMARK  137  A    between atoms: _352  and  _353
REMARK  138  A    between atoms: _355  and  _357
REMARK  139  A    between atoms: _357  and  _358
REMARK  140  A    between atoms: _357  and  _360
REMARK  141  A    between atoms: _360  and  _361
REMARK  142  A    between atoms: _361  and  _362
REMARK  143  A    between atoms: _364  and  _366
REMARK  144  A    between atoms: _366  and  _367
REMARK  145  A    between atoms: _366  and  _369
REMARK  146  A    between atoms: _369  and  _370
REMARK  147  A    between atoms: _370  and  _371
REMARK  148  A    between atoms: _376  and  _378
REMARK  149  A    between atoms: _378  and  _379
REMARK  150  A    between atoms: _378  and  _381
REMARK  151  A    between atoms: _381  and  _382
REMARK  152  A    between atoms: _384  and  _386
REMARK  153  A    between atoms: _386  and  _387
REMARK  154  A    between atoms: _386  and  _389
REMARK  155  A    between atoms: _389  and  _390
REMARK  156  A    between atoms: _395  and  _396
REMARK  157  A    between atoms: _398  and  _400
REMARK  158  A    between atoms: _400  and  _401
REMARK  159  A    between atoms: _400  and  _403
REMARK  160  A    between atoms: _403  and  _404
REMARK  161  A    between atoms: _406  and  _408
REMARK  162  A    between atoms: _408  and  _409
REMARK  163  A    between atoms: _412  and  _414
REMARK  164  A    between atoms: _414  and  _415
REMARK  165  A    between atoms: _414  and  _417
REMARK  166  A    between atoms: _417  and  _418
REMARK  167  A    between atoms: _428  and  _430
REMARK  168  A    between atoms: _430  and  _431
REMARK  169  A    between atoms: _430  and  _433
REMARK  170  A    between atoms: _433  and  _434
REMARK  171  A    between atoms: _434  and  _435
REMARK  172  A    between atoms: _440  and  _442
REMARK  173  A    between atoms: _442  and  _443
REMARK  174  A    between atoms: _442  and  _445
REMARK  175  A    between atoms: _448  and  _450
REMARK  176  A    between atoms: _450  and  _451
REMARK  177  A    between atoms: _450  and  _453
REMARK  178  A    between atoms: _453  and  _454
REMARK  179  A    between atoms: _457  and  _459
REMARK  180  A    between atoms: _459  and  _460
REMARK  181  A    between atoms: _459  and  _462
REMARK  182  A    between atoms: _462  and  _463
REMARK  183  A    between atoms: _468  and  _469
REMARK  184  A    between atoms: _471  and  _473
REMARK  185  A    between atoms: _473  and  _474
REMARK  186  A    between atoms: _473  and  _476
REMARK  187  A    between atoms: _479  and  _481
REMARK  188  A    between atoms: _481  and  _482
REMARK  189  A    between atoms: _481  and  _484
REMARK  190  A    between atoms: _484  and  _485
REMARK  191  A    between atoms: _491  and  _493
REMARK  192  A    between atoms: _493  and  _494
REMARK  193  A    between atoms: _493  and  _496
REMARK  194  A    between atoms: _496  and  _497
REMARK  195  A    between atoms: _497  and  _498
REMARK  196  A    between atoms: _503  and  _505
REMARK  197  A    between atoms: _505  and  _506
REMARK  198  A    between atoms: _505  and  _508
REMARK  199  A    between atoms: _508  and  _509
REMARK  200  A    between atoms: _511  and  _513
REMARK  201  A    between atoms: _513  and  _514
REMARK  202  A    between atoms: _513  and  _516
REMARK  203  A    between atoms: _516  and  _517
REMARK  204  A    between atoms: _522  and  _524
REMARK  205  A    between atoms: _524  and  _525
REMARK  206  A    between atoms: _524  and  _527
REMARK  207  A    between atoms: _527  and  _528
REMARK  208  A    between atoms: _538  and  _540
REMARK  209  A    between atoms: _540  and  _541
REMARK  210  A    between atoms: _540  and  _543
REMARK  211  A    between atoms: _543  and  _544
REMARK  212  A    between atoms: _547  and  _549
REMARK  213  A    between atoms: _549  and  _550
REMARK  214  A    between atoms: _549  and  _552
REMARK  215  A    between atoms: _552  and  _553
REMARK  216  A    between atoms: _558  and  _559
REMARK  217  A    between atoms: _561  and  _563
REMARK  218  A    between atoms: _563  and  _564
REMARK  219  A    between atoms: _563  and  _566
REMARK  220  A    between atoms: _566  and  _567
REMARK  221  A    between atoms: _570  and  _572
REMARK  222  A    between atoms: _572  and  _573
REMARK  223  A    between atoms: _572  and  _575
REMARK  224  A    between atoms: _575  and  _576
REMARK  225  A    between atoms: _576  and  _577
REMARK  226  A    between atoms: _580  and  _582
REMARK  227  A    between atoms: _582  and  _583
REMARK  228  A    between atoms: _582  and  _585
REMARK  229  A    between atoms: _585  and  _586
REMARK  230  A    between atoms: _591  and  _593
REMARK  231  A    between atoms: _593  and  _594
REMARK  232  A    between atoms: _596  and  _598
REMARK  233  A    between atoms: _598  and  _599
REMARK  234  A    between atoms: _598  and  _601
REMARK  235  A    between atoms: _601  and  _602
REMARK  236  A    between atoms: _602  and  _603
REMARK  237  A    between atoms: _605  and  _607
REMARK  238  A    between atoms: _607  and  _608
REMARK  239  A    between atoms: _607  and  _610
REMARK  240  A    between atoms: _610  and  _611
REMARK  241  A    between atoms: _614  and  _616
REMARK  242  A    between atoms: _616  and  _617
REMARK  243  A    between atoms: _616  and  _619
REMARK  244  A    between atoms: _619  and  _620
REMARK  245  A    between atoms: _630  and  _632
REMARK  246  A    between atoms: _632  and  _633
REMARK  247  A    between atoms: _632  and  _635
REMARK  248  A    between atoms: _635  and  _636
REMARK  249  A    between atoms: _638  and  _640
REMARK  250  A    between atoms: _640  and  _641
REMARK  251  A    between atoms: _640  and  _643
REMARK  252  A    between atoms: _643  and  _644
REMARK  253  A    between atoms: _649  and  _651
REMARK  254  A    between atoms: _651  and  _652
REMARK  255  A    between atoms: _651  and  _654
REMARK  256  A    between atoms: _654  and  _655
REMARK  257  A    between atoms: _661  and  _663
REMARK  258  A    between atoms: _663  and  _664
REMARK  259  A    between atoms: _663  and  _666
REMARK  260  A    between atoms: _666  and  _667
REMARK  261  A    between atoms: _667  and  _668
REMARK  262  A    between atoms: _671  and  _673
REMARK  263  A    between atoms: _673  and  _674
REMARK  264  A    between atoms: _673  and  _676
REMARK  265  A    between atoms: _676  and  _677
REMARK  266  A    between atoms: _687  and  _689
REMARK  267  A    between atoms: _689  and  _690
REMARK  268  A    between atoms: _689  and  _692
REMARK  269  A    between atoms: _692  and  _693
REMARK  270  A    between atoms: _696  and  _698
REMARK  271  A    between atoms: _698  and  _699
REMARK  272  A    between atoms: _698  and  _701
REMARK  273  A    between atoms: _701  and  _702
REMARK  274  A    between atoms: _704  and  _706
REMARK  275  A    between atoms: _706  and  _707
REMARK  276  A    between atoms: _706  and  _709
REMARK  277  A    between atoms: _709  and  _710
REMARK  278  A    between atoms: _712  and  _714
REMARK  279  A    between atoms: _714  and  _715
REMARK  280  A    between atoms: _714  and  _717
REMARK  281  A    between atoms: _717  and  _718
REMARK                            x       y       z     vdW  Elec       q    Type
REMARK                         _______ _______ _______ _____ _____    ______ ____
ROOT
ATOM      1  O   HOH     1      -7.636   1.926  45.465  0.00  0.00    +0.000 OA
ENDROOT
TORSDOF 0
REMARK  Name = ../refined-set-2016/3f5k/3f5k_pocket.pdb
REMARK  281 active torsions:
REMARK  status: ('A' for Active; 'I' for Inactive)
REMARK    1  A    between atoms: _1  and  _3
REMARK    2  A    between atoms: _3  and  _4
REMARK    3  A    between atoms: _3  and  _6
REMARK    4  A    between atoms: _9  and  _11
REMARK    5  A    between atoms: _11  and  _12
REMARK    6  A    between atoms: _11  and  _14
REMARK    7  A    between atoms: _14  and  _15
REMARK    8  A    between atoms: _18  and  _20
REMARK    9  A    between atoms: _20  and  _21
REMARK   10  A    between atoms: _20  and  _23
REMARK   11  A    between atoms: _23  and  _24
REMARK   12  A    between atoms: _26  and  _28
REMARK   13  A    between atoms: _28  and  _29
REMARK   14  A    between atoms: _32  and  _34
REMARK   15  A    between atoms: _34  and  _35
REMARK   16  A    between atoms: _34  and  _37
REMARK   17  A    between atoms: _37  and  _38
REMARK   18  A    between atoms: _38  and  _39
REMARK   19  A    between atoms: _44  and  _46
REMARK   20  A    between atoms: _46  and  _47
REMARK   21  A    between atoms: _46  and  _49
REMARK   22  A    between atoms: _49  and  _50
REMARK   23  A    between atoms: _50  and  _51
REMARK   24  A    between atoms: _51  and  _52
REMARK   25  A    between atoms: _61  and  _63
REMARK   26  A    between atoms: _63  and  _64
REMARK   27  A    between atoms: _63  and  _66
REMARK   28  A    between atoms: _66  and  _67
REMARK   29  A    between atoms: _72  and  _74
REMARK   30  A    between atoms: _74  and  _75
REMARK   31  A    between atoms: _74  and  _77
REMARK   32  A    between atoms: _77  and  _78
REMARK   33  A    between atoms: _83  and  _85
REMARK   34  A    between atoms: _85  and  _86
REMARK   35  A    between atoms: _85  and  _88
REMARK   36  A    between atoms: _88  and  _89
REMARK   37  A    between atoms: _94  and  _95
REMARK   38  A    between atoms: _97  and  _99
REMARK   39  A    between atoms: _99  and  _100
REMARK   40  A    between atoms: _99  and  _102
REMARK   41  A    between atoms: _102  and  _103
REMARK   42  A    between atoms: _108  and  _110
REMARK   43  A    between atoms: _110  and  _111
REMARK   44  A    between atoms: _110  and  _113
REMARK   45  A    between atoms: _113  and  _114
REMARK   46  A    between atoms: _114  and  _115
REMARK   47  A    between atoms: _120  and  _122
REMARK   48  A    between atoms: _122  and  _123
REMARK   49  A    between atoms: _122  and  _125
REMARK   50  A    between atoms: _125  and  _126
REMARK   51  A    between atoms: _126  and  _127
REMARK   52  A    between atoms: _127  and  _128
REMARK   53  A    between atoms: _137  and  _139
REMARK   54  A    between atoms: _139  and  _140
REMARK   55  A    between atoms: _139  and  _142
REMARK   56  A    between atoms: _142  and  _143
REMARK   57  A    between atoms: _146  and  _148
REMARK   58  A    between atoms: _148  and  _149
REMARK   59  A    between atoms: _148  and  _151
REMARK   60  A    between atoms: _151  and  _152
REMARK   61  A    between atoms: _155  and  _157
REMARK   62  A    between atoms: _157  and  _158
REMARK   63  A    between atoms: _157  and  _160
REMARK   64  A    between atoms: _160  and  _161
REMARK   65  A    between atoms: _164  and  _166
REMARK   66  A    between atoms: _166  and  _167
REMARK   67  A    between atoms: _166  and  _169
REMARK   68  A    between atoms: _169  and  _170
REMARK   69  A    between atoms: _173  and  _175
REMARK   70  A    between atoms: _175  and  _176
REMARK   71  A    between atoms: _175  and  _178
REMARK   72  A    between atoms: _178  and  _179
REMARK   73  A    between atoms: _179  and  _180
REMARK   74  A    between atoms: _185  and  _187
REMARK   75  A    between atoms: _187  and  _188
REMARK   76  A    between atoms: _187  and  _190
REMARK   77  A    between atoms: _190  and  _191
REMARK   78  A    between atoms: _194  and  _196
REMARK   79  A    between atoms: _196  and  _197
REMARK   80  A    between atoms: _196  and  _199
REMARK   81  A    between atoms: _199  and  _200
REMARK   82  A    between atoms: _205  and  _207
REMARK   83  A    between atoms: _207  and  _208
REMARK   84  A    between atoms: _207  and  _210
REMARK   85  A    between atoms: _213  and  _215
REMARK   86  A    between atoms: _215  and  _216
REMARK   87  A    between atoms: _215  and  _218
REMARK   88  A    between atoms: _218  and  _219
REMARK   89  A    between atoms: _222  and  _224
REMARK   90  A    between atoms: _224  and  _225
REMARK   91  A    between atoms: _224  and  _227
REMARK   92  A    between atoms: _227  and  _228
REMARK   93  A    between atoms: _231  and  _233
REMARK   94  A    between atoms: _233  and  _234
REMARK   95  A    between atoms: _233  and  _236
REMARK   96  A    between atoms: _236  and  _237
REMARK   97  A    between atoms: _243  and  _245
REMARK   98  A    between atoms: _245  and  _246
REMARK   99  A    between atoms: _245  and  _248
REMARK  100  A    between atoms: _248  and  _249
REMARK  101  A    between atoms: _254  and  _256
REMARK  102  A    between atoms: _256  and  _257
REMARK  103  A    between atoms: _256  and  _259
REMARK  104  A    between atoms: _259  and  _260
REMARK  105  A    between atoms: _270  and  _272
REMARK  106  A    between atoms: _272  and  _273
REMARK  107  A    between atoms: _272  and  _275
REMARK  108  A    between atoms: _275  and  _276
REMARK  109  A    between atoms: _281  and  _282
REMARK  110  A    between atoms: _284  and  _286
REMARK  111  A    between atoms: _286  and  _287
REMARK  112  A    between atoms: _286  and  _289
REMARK  113  A    between atoms: _289  and  _290
REMARK  114  A    between atoms: _295  and  _297
REMARK  115  A    between atoms: _297  and  _298
REMARK  116  A    between atoms: _297  and  _300
REMARK  117  A    between atoms: _300  and  _301
REMARK  118  A    between atoms: _306  and  _308
REMARK  119  A    between atoms: _308  and  _309
REMARK  120  A    between atoms: _308  and  _311
REMARK  121  A    between atoms: _311  and  _312
REMARK  122  A    between atoms: _312  and  _313
REMARK  123  A    between atoms: _318  and  _320
REMARK  124  A    between atoms: _320  and  _321
REMARK  125  A    between atoms: _320  and  _323
REMARK  126  A    between atoms: _323  and  _324
REMARK  127  A    between atoms: _329  and  _330
REMARK  128  A    between atoms: _332  and  _334
REMARK  129  A    between atoms: _334  and  _335
REMARK  130  A    between atoms: _334  and  _337
REMARK  131  A    between atoms: _337  and  _338
REMARK  132  A    between atoms: _341  and  _343
REMARK  133  A    between atoms: _343  and  _344
REMARK  134  A    between atoms: _347  and  _349
REMARK  135  A    between atoms: _349  and  _350
REMARK  136  A    between atoms: _349  and  _352
REMARK  137  A    between atoms: _352  and  _353
REMARK  138  A    between atoms: _355  and  _357
REMARK  139  A    between atoms: _357  and  _358
REMARK  140  A    between atoms: _357  and  _360
REMARK  141  A    between atoms: _360  and  _361
REMARK  142  A    between atoms: _361  and  _362
REMARK  143  A    between atoms: _364  and  _366
REMARK  144  A    between atoms: _366  and  _367
REMARK  145  A    between atoms: _366  and  _369
REMARK  146  A    between atoms: _369  and  _370
REMARK  147  A    between atoms: _370  and  _371
REMARK  148  A    between atoms: _376  and  _378
REMARK  149  A    between atoms: _378  and  _379
REMARK  150  A    between atoms: _378  and  _381
REMARK  151  A    between atoms: _381  and  _382
REMARK  152  A    between atoms: _384  and  _386
REMARK  153  A    between atoms: _386  and  _387
REMARK  154  A    between atoms: _386  and  _389
REMARK  155  A    between atoms: _389  and  _390
REMARK  156  A    between atoms: _395  and  _396
REMARK  157  A    between atoms: _398  and  _400
REMARK  158  A    between atoms: _400  and  _401
REMARK  159  A    between atoms: _400  and  _403
REMARK  160  A    between atoms: _403  and  _404
REMARK  161  A    between atoms: _406  and  _408
REMARK  162  A    between atoms: _408  and  _409
REMARK  163  A    between atoms: _412  and  _414
REMARK  164  A    between atoms: _414  and  _415
REMARK  165  A    between atoms: _414  and  _417
REMARK  166  A    between atoms: _417  and  _418
REMARK  167  A    between atoms: _428  and  _430
REMARK  168  A    between atoms: _430  and  _431
REMARK  169  A    between atoms: _430  and  _433
REMARK  170  A    between atoms: _433  and  _434
REMARK  171  A    between atoms: _434  and  _435
REMARK  172  A    between atoms: _440  and  _442
REMARK  173  A    between atoms: _442  and  _443
REMARK  174  A    between atoms: _442  and  _445
REMARK  175  A    between atoms: _448  and  _450
REMARK  176  A    between atoms: _450  and  _451
REMARK  177  A    between atoms: _450  and  _453
REMARK  178  A    between atoms: _453  and  _454
REMARK  179  A    between atoms: _457  and  _459
REMARK  180  A    between atoms: _459  and  _460
REMARK  181  A    between atoms: _459  and  _462
REMARK  182  A    between atoms: _462  and  _463
REMARK  183  A    between atoms: _468  and  _469
REMARK  184  A    between atoms: _471  and  _473
REMARK  185  A    between atoms: _473  and  _474
REMARK  186  A    between atoms: _473  and  _476
REMARK  187  A    between atoms: _479  and  _481
REMARK  188  A    between atoms: _481  and  _482
REMARK  189  A    between atoms: _481  and  _484
REMARK  190  A    between atoms: _484  and  _485
REMARK  191  A    between atoms: _491  and  _493
REMARK  192  A    between atoms: _493  and  _494
REMARK  193  A    between atoms: _493  and  _496
REMARK  194  A    between atoms: _496  and  _497
REMARK  195  A    between atoms: _497  and  _498
REMARK  196  A    between atoms: _503  and  _505
REMARK  197  A    between atoms: _505  and  _506
REMARK  198  A    between atoms: _505  and  _508
REMARK  199  A    between atoms: _508  and  _509
REMARK  200  A    between atoms: _511  and  _513
REMARK  201  A    between atoms: _513  and  _514
REMARK  202  A    between atoms: _513  and  _516
REMARK  203  A    between atoms: _516  and  _517
REMARK  204  A    between atoms: _522  and  _524
REMARK  205  A    between atoms: _524  and  _525
REMARK  206  A    between atoms: _524  and  _527
REMARK  207  A    between atoms: _527  and  _528
REMARK  208  A    between atoms: _538  and  _540
REMARK  209  A    between atoms: _540  and  _541
REMARK  210  A    between atoms: _540  and  _543
REMARK  211  A    between atoms: _543  and  _544
REMARK  212  A    between atoms: _547  and  _549
REMARK  213  A    between atoms: _549  and  _550
REMARK  214  A    between atoms: _549  and  _552
REMARK  215  A    between atoms: _552  and  _553
REMARK  216  A    between atoms: _558  and  _559
REMARK  217  A    between atoms: _561  and  _563
REMARK  218  A    between atoms: _563  and  _564
REMARK  219  A    between atoms: _563  and  _566
REMARK  220  A    between atoms: _566  and  _567
REMARK  221  A    between atoms: _570  and  _572
REMARK  222  A    between atoms: _572  and  _573
REMARK  223  A    between atoms: _572  and  _575
REMARK  224  A    between atoms: _575  and  _576
REMARK  225  A    between atoms: _576  and  _577
REMARK  226  A    between atoms: _580  and  _582
REMARK  227  A    between atoms: _582  and  _583
REMARK  228  A    between atoms: _582  and  _585
REMARK  229  A    between atoms: _585  and  _586
REMARK  230  A    between atoms: _591  and  _593
REMARK  231  A    between atoms: _593  and  _594
REMARK  232  A    between atoms: _596  and  _598
REMARK  233  A    between atoms: _598  and  _599
REMARK  234  A    between atoms: _598  and  _601
REMARK  235  A    between atoms: _601  and  _602
REMARK  236  A    between atoms: _602  and  _603
REMARK  237  A    between atoms: _605  and  _607
REMARK  238  A    between atoms: _607  and  _608
REMARK  239  A    between atoms: _607  and  _610
REMARK  240  A    between atoms: _610  and  _611
REMARK  241  A    between atoms: _614  and  _616
REMARK  242  A    between atoms: _616  and  _617
REMARK  243  A    between atoms: _616  and  _619
REMARK  244  A    between atoms: _619  and  _620
REMARK  245  A    between atoms: _630  and  _632
REMARK  246  A    between atoms: _632  and  _633
REMARK  247  A    between atoms: _632  and  _635
REMARK  248  A    between atoms: _635  and  _636
REMARK  249  A    between atoms: _638  and  _640
REMARK  250  A    between atoms: _640  and  _641
REMARK  251  A    between atoms: _640  and  _643
REMARK  252  A    between atoms: _643  and  _644
REMARK  253  A    between atoms: _649  and  _651
REMARK  254  A    between atoms: _651  and  _652
REMARK  255  A    between atoms: _651  and  _654
REMARK  256  A    between atoms: _654  and  _655
REMARK  257  A    between atoms: _661  and  _663
REMARK  258  A    between atoms: _663  and  _664
REMARK  259  A    between atoms: _663  and  _666
REMARK  260  A    between atoms: _666  and  _667
REMARK  261  A    between atoms: _667  and  _668
REMARK  262  A    between atoms: _671  and  _673
REMARK  263  A    between atoms: _673  and  _674
REMARK  264  A    between atoms: _673  and  _676
REMARK  265  A    between atoms: _676  and  _677
REMARK  266  A    between atoms: _687  and  _689
REMARK  267  A    between atoms: _689  and  _690
REMARK  268  A    between atoms: _689  and  _692
REMARK  269  A    between atoms: _692  and  _693
REMARK  270  A    between atoms: _696  and  _698
REMARK  271  A    between atoms: _698  and  _699
REMARK  272  A    between atoms: _698  and  _701
REMARK  273  A    between atoms: _701  and  _702
REMARK  274  A    between atoms: _704  and  _706
REMARK  275  A    between atoms: _706  and  _707
REMARK  276  A    between atoms: _706  and  _709
REMARK  277  A    between atoms: _709  and  _710
REMARK  278  A    between atoms: _712  and  _714
REMARK  279  A    between atoms: _714  and  _715
REMARK  280  A    between atoms: _714  and  _717
REMARK  281  A    between atoms: _717  and  _718
REMARK                            x       y       z     vdW  Elec       q    Type
REMARK                         _______ _______ _______ _____ _____    ______ ____
ROOT
ATOM      1  O   HOH     1      -5.219   4.034  37.132  0.00  0.00    +0.000 OA
ENDROOT
TORSDOF 0
REMARK  Name = ../refined-set-2016/3f5k/3f5k_pocket.pdb
REMARK  281 active torsions:
REMARK  status: ('A' for Active; 'I' for Inactive)
REMARK    1  A    between atoms: _1  and  _3
REMARK    2  A    between atoms: _3  and  _4
REMARK    3  A    between atoms: _3  and  _6
REMARK    4  A    between atoms: _9  and  _11
REMARK    5  A    between atoms: _11  and  _12
REMARK    6  A    between atoms: _11  and  _14
REMARK    7  A    between atoms: _14  and  _15
REMARK    8  A    between atoms: _18  and  _20
REMARK    9  A    between atoms: _20  and  _21
REMARK   10  A    between atoms: _20  and  _23
REMARK   11  A    between atoms: _23  and  _24
REMARK   12  A    between atoms: _26  and  _28
REMARK   13  A    between atoms: _28  and  _29
REMARK   14  A    between atoms: _32  and  _34
REMARK   15  A    between atoms: _34  and  _35
REMARK   16  A    between atoms: _34  and  _37
REMARK   17  A    between atoms: _37  and  _38
REMARK   18  A    between atoms: _38  and  _39
REMARK   19  A    between atoms: _44  and  _46
REMARK   20  A    between atoms: _46  and  _47
REMARK   21  A    between atoms: _46  and  _49
REMARK   22  A    between atoms: _49  and  _50
REMARK   23  A    between atoms: _50  and  _51
REMARK   24  A    between atoms: _51  and  _52
REMARK   25  A    between atoms: _61  and  _63
REMARK   26  A    between atoms: _63  and  _64
REMARK   27  A    between atoms: _63  and  _66
REMARK   28  A    between atoms: _66  and  _67
REMARK   29  A    between atoms: _72  and  _74
REMARK   30  A    between atoms: _74  and  _75
REMARK   31  A    between atoms: _74  and  _77
REMARK   32  A    between atoms: _77  and  _78
REMARK   33  A    between atoms: _83  and  _85
REMARK   34  A    between atoms: _85  and  _86
REMARK   35  A    between atoms: _85  and  _88
REMARK   36  A    between atoms: _88  and  _89
REMARK   37  A    between atoms: _94  and  _95
REMARK   38  A    between atoms: _97  and  _99
REMARK   39  A    between atoms: _99  and  _100
REMARK   40  A    between atoms: _99  and  _102
REMARK   41  A    between atoms: _102  and  _103
REMARK   42  A    between atoms: _108  and  _110
REMARK   43  A    between atoms: _110  and  _111
REMARK   44  A    between atoms: _110  and  _113
REMARK   45  A    between atoms: _113  and  _114
REMARK   46  A    between atoms: _114  and  _115
REMARK   47  A    between atoms: _120  and  _122
REMARK   48  A    between atoms: _122  and  _123
REMARK   49  A    between atoms: _122  and  _125
REMARK   50  A    between atoms: _125  and  _126
REMARK   51  A    between atoms: _126  and  _127
REMARK   52  A    between atoms: _127  and  _128
REMARK   53  A    between atoms: _137  and  _139
REMARK   54  A    between atoms: _139  and  _140
REMARK   55  A    between atoms: _139  and  _142
REMARK   56  A    between atoms: _142  and  _143
REMARK   57  A    between atoms: _146  and  _148
REMARK   58  A    between atoms: _148  and  _149
REMARK   59  A    between atoms: _148  and  _151
REMARK   60  A    between atoms: _151  and  _152
REMARK   61  A    between atoms: _155  and  _157
REMARK   62  A    between atoms: _157  and  _158
REMARK   63  A    between atoms: _157  and  _160
REMARK   64  A    between atoms: _160  and  _161
REMARK   65  A    between atoms: _164  and  _166
REMARK   66  A    between atoms: _166  and  _167
REMARK   67  A    between atoms: _166  and  _169
REMARK   68  A    between atoms: _169  and  _170
REMARK   69  A    between atoms: _173  and  _175
REMARK   70  A    between atoms: _175  and  _176
REMARK   71  A    between atoms: _175  and  _178
REMARK   72  A    between atoms: _178  and  _179
REMARK   73  A    between atoms: _179  and  _180
REMARK   74  A    between atoms: _185  and  _187
REMARK   75  A    between atoms: _187  and  _188
REMARK   76  A    between atoms: _187  and  _190
REMARK   77  A    between atoms: _190  and  _191
REMARK   78  A    between atoms: _194  and  _196
REMARK   79  A    between atoms: _196  and  _197
REMARK   80  A    between atoms: _196  and  _199
REMARK   81  A    between atoms: _199  and  _200
REMARK   82  A    between atoms: _205  and  _207
REMARK   83  A    between atoms: _207  and  _208
REMARK   84  A    between atoms: _207  and  _210
REMARK   85  A    between atoms: _213  and  _215
REMARK   86  A    between atoms: _215  and  _216
REMARK   87  A    between atoms: _215  and  _218
REMARK   88  A    between atoms: _218  and  _219
REMARK   89  A    between atoms: _222  and  _224
REMARK   90  A    between atoms: _224  and  _225
REMARK   91  A    between atoms: _224  and  _227
REMARK   92  A    between atoms: _227  and  _228
REMARK   93  A    between atoms: _231  and  _233
REMARK   94  A    between atoms: _233  and  _234
REMARK   95  A    between atoms: _233  and  _236
REMARK   96  A    between atoms: _236  and  _237
REMARK   97  A    between atoms: _243  and  _245
REMARK   98  A    between atoms: _245  and  _246
REMARK   99  A    between atoms: _245  and  _248
REMARK  100  A    between atoms: _248  and  _249
REMARK  101  A    between atoms: _254  and  _256
REMARK  102  A    between atoms: _256  and  _257
REMARK  103  A    between atoms: _256  and  _259
REMARK  104  A    between atoms: _259  and  _260
REMARK  105  A    between atoms: _270  and  _272
REMARK  106  A    between atoms: _272  and  _273
REMARK  107  A    between atoms: _272  and  _275
REMARK  108  A    between atoms: _275  and  _276
REMARK  109  A    between atoms: _281  and  _282
REMARK  110  A    between atoms: _284  and  _286
REMARK  111  A    between atoms: _286  and  _287
REMARK  112  A    between atoms: _286  and  _289
REMARK  113  A    between atoms: _289  and  _290
REMARK  114  A    between atoms: _295  and  _297
REMARK  115  A    between atoms: _297  and  _298
REMARK  116  A    between atoms: _297  and  _300
REMARK  117  A    between atoms: _300  and  _301
REMARK  118  A    between atoms: _306  and  _308
REMARK  119  A    between atoms: _308  and  _309
REMARK  120  A    between atoms: _308  and  _311
REMARK  121  A    between atoms: _311  and  _312
REMARK  122  A    between atoms: _312  and  _313
REMARK  123  A    between atoms: _318  and  _320
REMARK  124  A    between atoms: _320  and  _321
REMARK  125  A    between atoms: _320  and  _323
REMARK  126  A    between atoms: _323  and  _324
REMARK  127  A    between atoms: _329  and  _330
REMARK  128  A    between atoms: _332  and  _334
REMARK  129  A    between atoms: _334  and  _335
REMARK  130  A    between atoms: _334  and  _337
REMARK  131  A    between atoms: _337  and  _338
REMARK  132  A    between atoms: _341  and  _343
REMARK  133  A    between atoms: _343  and  _344
REMARK  134  A    between atoms: _347  and  _349
REMARK  135  A    between atoms: _349  and  _350
REMARK  136  A    between atoms: _349  and  _352
REMARK  137  A    between atoms: _352  and  _353
REMARK  138  A    between atoms: _355  and  _357
REMARK  139  A    between atoms: _357  and  _358
REMARK  140  A    between atoms: _357  and  _360
REMARK  141  A    between atoms: _360  and  _361
REMARK  142  A    between atoms: _361  and  _362
REMARK  143  A    between atoms: _364  and  _366
REMARK  144  A    between atoms: _366  and  _367
REMARK  145  A    between atoms: _366  and  _369
REMARK  146  A    between atoms: _369  and  _370
REMARK  147  A    between atoms: _370  and  _371
REMARK  148  A    between atoms: _376  and  _378
REMARK  149  A    between atoms: _378  and  _379
REMARK  150  A    between atoms: _378  and  _381
REMARK  151  A    between atoms: _381  and  _382
REMARK  152  A    between atoms: _384  and  _386
REMARK  153  A    between atoms: _386  and  _387
REMARK  154  A    between atoms: _386  and  _389
REMARK  155  A    between atoms: _389  and  _390
REMARK  156  A    between atoms: _395  and  _396
REMARK  157  A    between atoms: _398  and  _400
REMARK  158  A    between atoms: _400  and  _401
REMARK  159  A    between atoms: _400  and  _403
REMARK  160  A    between atoms: _403  and  _404
REMARK  161  A    between atoms: _406  and  _408
REMARK  162  A    between atoms: _408  and  _409
REMARK  163  A    between atoms: _412  and  _414
REMARK  164  A    between atoms: _414  and  _415
REMARK  165  A    between atoms: _414  and  _417
REMARK  166  A    between atoms: _417  and  _418
REMARK  167  A    between atoms: _428  and  _430
REMARK  168  A    between atoms: _430  and  _431
REMARK  169  A    between atoms: _430  and  _433
REMARK  170  A    between atoms: _433  and  _434
REMARK  171  A    between atoms: _434  and  _435
REMARK  172  A    between atoms: _440  and  _442
REMARK  173  A    between atoms: _442  and  _443
REMARK  174  A    between atoms: _442  and  _445
REMARK  175  A    between atoms: _448  and  _450
REMARK  176  A    between atoms: _450  and  _451
REMARK  177  A    between atoms: _450  and  _453
REMARK  178  A    between atoms: _453  and  _454
REMARK  179  A    between atoms: _457  and  _459
REMARK  180  A    between atoms: _459  and  _460
REMARK  181  A    between atoms: _459  and  _462
REMARK  182  A    between atoms: _462  and  _463
REMARK  183  A    between atoms: _468  and  _469
REMARK  184  A    between atoms: _471  and  _473
REMARK  185  A    between atoms: _473  and  _474
REMARK  186  A    between atoms: _473  and  _476
REMARK  187  A    between atoms: _479  and  _481
REMARK  188  A    between atoms: _481  and  _482
REMARK  189  A    between atoms: _481  and  _484
REMARK  190  A    between atoms: _484  and  _485
REMARK  191  A    between atoms: _491  and  _493
REMARK  192  A    between atoms: _493  and  _494
REMARK  193  A    between atoms: _493  and  _496
REMARK  194  A    between atoms: _496  and  _497
REMARK  195  A    between atoms: _497  and  _498
REMARK  196  A    between atoms: _503  and  _505
REMARK  197  A    between atoms: _505  and  _506
REMARK  198  A    between atoms: _505  and  _508
REMARK  199  A    between atoms: _508  and  _509
REMARK  200  A    between atoms: _511  and  _513
REMARK  201  A    between atoms: _513  and  _514
REMARK  202  A    between atoms: _513  and  _516
REMARK  203  A    between atoms: _516  and  _517
REMARK  204  A    between atoms: _522  and  _524
REMARK  205  A    between atoms: _524  and  _525
REMARK  206  A    between atoms: _524  and  _527
REMARK  207  A    between atoms: _527  and  _528
REMARK  208  A    between atoms: _538  and  _540
REMARK  209  A    between atoms: _540  and  _541
REMARK  210  A    between atoms: _540  and  _543
REMARK  211  A    between atoms: _543  and  _544
REMARK  212  A    between atoms: _547  and  _549
REMARK  213  A    between atoms: _549  and  _550
REMARK  214  A    between atoms: _549  and  _552
REMARK  215  A    between atoms: _552  and  _553
REMARK  216  A    between atoms: _558  and  _559
REMARK  217  A    between atoms: _561  and  _563
REMARK  218  A    between atoms: _563  and  _564
REMARK  219  A    between atoms: _563  and  _566
REMARK  220  A    between atoms: _566  and  _567
REMARK  221  A    between atoms: _570  and  _572
REMARK  222  A    between atoms: _572  and  _573
REMARK  223  A    between atoms: _572  and  _575
REMARK  224  A    between atoms: _575  and  _576
REMARK  225  A    between atoms: _576  and  _577
REMARK  226  A    between atoms: _580  and  _582
REMARK  227  A    between atoms: _582  and  _583
REMARK  228  A    between atoms: _582  and  _585
REMARK  229  A    between atoms: _585  and  _586
REMARK  230  A    between atoms: _591  and  _593
REMARK  231  A    between atoms: _593  and  _594
REMARK  232  A    between atoms: _596  and  _598
REMARK  233  A    between atoms: _598  and  _599
REMARK  234  A    between atoms: _598  and  _601
REMARK  235  A    between atoms: _601  and  _602
REMARK  236  A    between atoms: _602  and  _603
REMARK  237  A    between atoms: _605  and  _607
REMARK  238  A    between atoms: _607  and  _608
REMARK  239  A    between atoms: _607  and  _610
REMARK  240  A    between atoms: _610  and  _611
REMARK  241  A    between atoms: _614  and  _616
REMARK  242  A    between atoms: _616  and  _617
REMARK  243  A    between atoms: _616  and  _619
REMARK  244  A    between atoms: _619  and  _620
REMARK  245  A    between atoms: _630  and  _632
REMARK  246  A    between atoms: _632  and  _633
REMARK  247  A    between atoms: _632  and  _635
REMARK  248  A    between atoms: _635  and  _636
REMARK  249  A    between atoms: _638  and  _640
REMARK  250  A    between atoms: _640  and  _641
REMARK  251  A    between atoms: _640  and  _643
REMARK  252  A    between atoms: _643  and  _644
REMARK  253  A    between atoms: _649  and  _651
REMARK  254  A    between atoms: _651  and  _652
REMARK  255  A    between atoms: _651  and  _654
REMARK  256  A    between atoms: _654  and  _655
REMARK  257  A    between atoms: _661  and  _663
REMARK  258  A    between atoms: _663  and  _664
REMARK  259  A    between atoms: _663  and  _666
REMARK  260  A    between atoms: _666  and  _667
REMARK  261  A    between atoms: _667  and  _668
REMARK  262  A    between atoms: _671  and  _673
REMARK  263  A    between atoms: _673  and  _674
REMARK  264  A    between atoms: _673  and  _676
REMARK  265  A    between atoms: _676  and  _677
REMARK  266  A    between atoms: _687  and  _689
REMARK  267  A    between atoms: _689  and  _690
REMARK  268  A    between atoms: _689  and  _692
REMARK  269  A    between atoms: _692  and  _693
REMARK  270  A    between atoms: _696  and  _698
REMARK  271  A    between atoms: _698  and  _699
REMARK  272  A    between atoms: _698  and  _701
REMARK  273  A    between atoms: _701  and  _702
REMARK  274  A    between atoms: _704  and  _706
REMARK  275  A    between atoms: _706  and  _707
REMARK  276  A    between atoms: _706  and  _709
REMARK  277  A    between atoms: _709  and  _710
REMARK  278  A    between atoms: _712  and  _714
REMARK  279  A    between atoms: _714  and  _715
REMARK  280  A    between atoms: _714  and  _717
REMARK  281  A    between atoms: _717  and  _718
REMARK                            x       y       z     vdW  Elec       q    Type
REMARK                         _______ _______ _______ _____ _____    ______ ____
ROOT
ATOM      1  O   HOH     1      -4.121   4.795  49.265  0.00  0.00    +0.000 OA
ENDROOT
TORSDOF 0
REMARK  Name = ../refined-set-2016/3f5k/3f5k_pocket.pdb
REMARK  281 active torsions:
REMARK  status: ('A' for Active; 'I' for Inactive)
REMARK    1  A    between atoms: _1  and  _3
REMARK    2  A    between atoms: _3  and  _4
REMARK    3  A    between atoms: _3  and  _6
REMARK    4  A    between atoms: _9  and  _11
REMARK    5  A    between atoms: _11  and  _12
REMARK    6  A    between atoms: _11  and  _14
REMARK    7  A    between atoms: _14  and  _15
REMARK    8  A    between atoms: _18  and  _20
REMARK    9  A    between atoms: _20  and  _21
REMARK   10  A    between atoms: _20  and  _23
REMARK   11  A    between atoms: _23  and  _24
REMARK   12  A    between atoms: _26  and  _28
REMARK   13  A    between atoms: _28  and  _29
REMARK   14  A    between atoms: _32  and  _34
REMARK   15  A    between atoms: _34  and  _35
REMARK   16  A    between atoms: _34  and  _37
REMARK   17  A    between atoms: _37  and  _38
REMARK   18  A    between atoms: _38  and  _39
REMARK   19  A    between atoms: _44  and  _46
REMARK   20  A    between atoms: _46  and  _47
REMARK   21  A    between atoms: _46  and  _49
REMARK   22  A    between atoms: _49  and  _50
REMARK   23  A    between atoms: _50  and  _51
REMARK   24  A    between atoms: _51  and  _52
REMARK   25  A    between atoms: _61  and  _63
REMARK   26  A    between atoms: _63  and  _64
REMARK   27  A    between atoms: _63  and  _66
REMARK   28  A    between atoms: _66  and  _67
REMARK   29  A    between atoms: _72  and  _74
REMARK   30  A    between atoms: _74  and  _75
REMARK   31  A    between atoms: _74  and  _77
REMARK   32  A    between atoms: _77  and  _78
REMARK   33  A    between atoms: _83  and  _85
REMARK   34  A    between atoms: _85  and  _86
REMARK   35  A    between atoms: _85  and  _88
REMARK   36  A    between atoms: _88  and  _89
REMARK   37  A    between atoms: _94  and  _95
REMARK   38  A    between atoms: _97  and  _99
REMARK   39  A    between atoms: _99  and  _100
REMARK   40  A    between atoms: _99  and  _102
REMARK   41  A    between atoms: _102  and  _103
REMARK   42  A    between atoms: _108  and  _110
REMARK   43  A    between atoms: _110  and  _111
REMARK   44  A    between atoms: _110  and  _113
REMARK   45  A    between atoms: _113  and  _114
REMARK   46  A    between atoms: _114  and  _115
REMARK   47  A    between atoms: _120  and  _122
REMARK   48  A    between atoms: _122  and  _123
REMARK   49  A    between atoms: _122  and  _125
REMARK   50  A    between atoms: _125  and  _126
REMARK   51  A    between atoms: _126  and  _127
REMARK   52  A    between atoms: _127  and  _128
REMARK   53  A    between atoms: _137  and  _139
REMARK   54  A    between atoms: _139  and  _140
REMARK   55  A    between atoms: _139  and  _142
REMARK   56  A    between atoms: _142  and  _143
REMARK   57  A    between atoms: _146  and  _148
REMARK   58  A    between atoms: _148  and  _149
REMARK   59  A    between atoms: _148  and  _151
REMARK   60  A    between atoms: _151  and  _152
REMARK   61  A    between atoms: _155  and  _157
REMARK   62  A    between atoms: _157  and  _158
REMARK   63  A    between atoms: _157  and  _160
REMARK   64  A    between atoms: _160  and  _161
REMARK   65  A    between atoms: _164  and  _166
REMARK   66  A    between atoms: _166  and  _167
REMARK   67  A    between atoms: _166  and  _169
REMARK   68  A    between atoms: _169  and  _170
REMARK   69  A    between atoms: _173  and  _175
REMARK   70  A    between atoms: _175  and  _176
REMARK   71  A    between atoms: _175  and  _178
REMARK   72  A    between atoms: _178  and  _179
REMARK   73  A    between atoms: _179  and  _180
REMARK   74  A    between atoms: _185  and  _187
REMARK   75  A    between atoms: _187  and  _188
REMARK   76  A    between atoms: _187  and  _190
REMARK   77  A    between atoms: _190  and  _191
REMARK   78  A    between atoms: _194  and  _196
REMARK   79  A    between atoms: _196  and  _197
REMARK   80  A    between atoms: _196  and  _199
REMARK   81  A    between atoms: _199  and  _200
REMARK   82  A    between atoms: _205  and  _207
REMARK   83  A    between atoms: _207  and  _208
REMARK   84  A    between atoms: _207  and  _210
REMARK   85  A    between atoms: _213  and  _215
REMARK   86  A    between atoms: _215  and  _216
REMARK   87  A    between atoms: _215  and  _218
REMARK   88  A    between atoms: _218  and  _219
REMARK   89  A    between atoms: _222  and  _224
REMARK   90  A    between atoms: _224  and  _225
REMARK   91  A    between atoms: _224  and  _227
REMARK   92  A    between atoms: _227  and  _228
REMARK   93  A    between atoms: _231  and  _233
REMARK   94  A    between atoms: _233  and  _234
REMARK   95  A    between atoms: _233  and  _236
REMARK   96  A    between atoms: _236  and  _237
REMARK   97  A    between atoms: _243  and  _245
REMARK   98  A    between atoms: _245  and  _246
REMARK   99  A    between atoms: _245  and  _248
REMARK  100  A    between atoms: _248  and  _249
REMARK  101  A    between atoms: _254  and  _256
REMARK  102  A    between atoms: _256  and  _257
REMARK  103  A    between atoms: _256  and  _259
REMARK  104  A    between atoms: _259  and  _260
REMARK  105  A    between atoms: _270  and  _272
REMARK  106  A    between atoms: _272  and  _273
REMARK  107  A    between atoms: _272  and  _275
REMARK  108  A    between atoms: _275  and  _276
REMARK  109  A    between atoms: _281  and  _282
REMARK  110  A    between atoms: _284  and  _286
REMARK  111  A    between atoms: _286  and  _287
REMARK  112  A    between atoms: _286  and  _289
REMARK  113  A    between atoms: _289  and  _290
REMARK  114  A    between atoms: _295  and  _297
REMARK  115  A    between atoms: _297  and  _298
REMARK  116  A    between atoms: _297  and  _300
REMARK  117  A    between atoms: _300  and  _301
REMARK  118  A    between atoms: _306  and  _308
REMARK  119  A    between atoms: _308  and  _309
REMARK  120  A    between atoms: _308  and  _311
REMARK  121  A    between atoms: _311  and  _312
REMARK  122  A    between atoms: _312  and  _313
REMARK  123  A    between atoms: _318  and  _320
REMARK  124  A    between atoms: _320  and  _321
REMARK  125  A    between atoms: _320  and  _323
REMARK  126  A    between atoms: _323  and  _324
REMARK  127  A    between atoms: _329  and  _330
REMARK  128  A    between atoms: _332  and  _334
REMARK  129  A    between atoms: _334  and  _335
REMARK  130  A    between atoms: _334  and  _337
REMARK  131  A    between atoms: _337  and  _338
REMARK  132  A    between atoms: _341  and  _343
REMARK  133  A    between atoms: _343  and  _344
REMARK  134  A    between atoms: _347  and  _349
REMARK  135  A    between atoms: _349  and  _350
REMARK  136  A    between atoms: _349  and  _352
REMARK  137  A    between atoms: _352  and  _353
REMARK  138  A    between atoms: _355  and  _357
REMARK  139  A    between atoms: _357  and  _358
REMARK  140  A    between atoms: _357  and  _360
REMARK  141  A    between atoms: _360  and  _361
REMARK  142  A    between atoms: _361  and  _362
REMARK  143  A    between atoms: _364  and  _366
REMARK  144  A    between atoms: _366  and  _367
REMARK  145  A    between atoms: _366  and  _369
REMARK  146  A    between atoms: _369  and  _370
REMARK  147  A    between atoms: _370  and  _371
REMARK  148  A    between atoms: _376  and  _378
REMARK  149  A    between atoms: _378  and  _379
REMARK  150  A    between atoms: _378  and  _381
REMARK  151  A    between atoms: _381  and  _382
REMARK  152  A    between atoms: _384  and  _386
REMARK  153  A    between atoms: _386  and  _387
REMARK  154  A    between atoms: _386  and  _389
REMARK  155  A    between atoms: _389  and  _390
REMARK  156  A    between atoms: _395  and  _396
REMARK  157  A    between atoms: _398  and  _400
REMARK  158  A    between atoms: _400  and  _401
REMARK  159  A    between atoms: _400  and  _403
REMARK  160  A    between atoms: _403  and  _404
REMARK  161  A    between atoms: _406  and  _408
REMARK  162  A    between atoms: _408  and  _409
REMARK  163  A    between atoms: _412  and  _414
REMARK  164  A    between atoms: _414  and  _415
REMARK  165  A    between atoms: _414  and  _417
REMARK  166  A    between atoms: _417  and  _418
REMARK  167  A    between atoms: _428  and  _430
REMARK  168  A    between atoms: _430  and  _431
REMARK  169  A    between atoms: _430  and  _433
REMARK  170  A    between atoms: _433  and  _434
REMARK  171  A    between atoms: _434  and  _435
REMARK  172  A    between atoms: _440  and  _442
REMARK  173  A    between atoms: _442  and  _443
REMARK  174  A    between atoms: _442  and  _445
REMARK  175  A    between atoms: _448  and  _450
REMARK  176  A    between atoms: _450  and  _451
REMARK  177  A    between atoms: _450  and  _453
REMARK  178  A    between atoms: _453  and  _454
REMARK  179  A    between atoms: _457  and  _459
REMARK  180  A    between atoms: _459  and  _460
REMARK  181  A    between atoms: _459  and  _462
REMARK  182  A    between atoms: _462  and  _463
REMARK  183  A    between atoms: _468  and  _469
REMARK  184  A    between atoms: _471  and  _473
REMARK  185  A    between atoms: _473  and  _474
REMARK  186  A    between atoms: _473  and  _476
REMARK  187  A    between atoms: _479  and  _481
REMARK  188  A    between atoms: _481  and  _482
REMARK  189  A    between atoms: _481  and  _484
REMARK  190  A    between atoms: _484  and  _485
REMARK  191  A    between atoms: _491  and  _493
REMARK  192  A    between atoms: _493  and  _494
REMARK  193  A    between atoms: _493  and  _496
REMARK  194  A    between atoms: _496  and  _497
REMARK  195  A    between atoms: _497  and  _498
REMARK  196  A    between atoms: _503  and  _505
REMARK  197  A    between atoms: _505  and  _506
REMARK  198  A    between atoms: _505  and  _508
REMARK  199  A    between atoms: _508  and  _509
REMARK  200  A    between atoms: _511  and  _513
REMARK  201  A    between atoms: _513  and  _514
REMARK  202  A    between atoms: _513  and  _516
REMARK  203  A    between atoms: _516  and  _517
REMARK  204  A    between atoms: _522  and  _524
REMARK  205  A    between atoms: _524  and  _525
REMARK  206  A    between atoms: _524  and  _527
REMARK  207  A    between atoms: _527  and  _528
REMARK  208  A    between atoms: _538  and  _540
REMARK  209  A    between atoms: _540  and  _541
REMARK  210  A    between atoms: _540  and  _543
REMARK  211  A    between atoms: _543  and  _544
REMARK  212  A    between atoms: _547  and  _549
REMARK  213  A    between atoms: _549  and  _550
REMARK  214  A    between atoms: _549  and  _552
REMARK  215  A    between atoms: _552  and  _553
REMARK  216  A    between atoms: _558  and  _559
REMARK  217  A    between atoms: _561  and  _563
REMARK  218  A    between atoms: _563  and  _564
REMARK  219  A    between atoms: _563  and  _566
REMARK  220  A    between atoms: _566  and  _567
REMARK  221  A    between atoms: _570  and  _572
REMARK  222  A    between atoms: _572  and  _573
REMARK  223  A    between atoms: _572  and  _575
REMARK  224  A    between atoms: _575  and  _576
REMARK  225  A    between atoms: _576  and  _577
REMARK  226  A    between atoms: _580  and  _582
REMARK  227  A    between atoms: _582  and  _583
REMARK  228  A    between atoms: _582  and  _585
REMARK  229  A    between atoms: _585  and  _586
REMARK  230  A    between atoms: _591  and  _593
REMARK  231  A    between atoms: _593  and  _594
REMARK  232  A    between atoms: _596  and  _598
REMARK  233  A    between atoms: _598  and  _599
REMARK  234  A    between atoms: _598  and  _601
REMARK  235  A    between atoms: _601  and  _602
REMARK  236  A    between atoms: _602  and  _603
REMARK  237  A    between atoms: _605  and  _607
REMARK  238  A    between atoms: _607  and  _608
REMARK  239  A    between atoms: _607  and  _610
REMARK  240  A    between atoms: _610  and  _611
REMARK  241  A    between atoms: _614  and  _616
REMARK  242  A    between atoms: _616  and  _617
REMARK  243  A    between atoms: _616  and  _619
REMARK  244  A    between atoms: _619  and  _620
REMARK  245  A    between atoms: _630  and  _632
REMARK  246  A    between atoms: _632  and  _633
REMARK  247  A    between atoms: _632  and  _635
REMARK  248  A    between atoms: _635  and  _636
REMARK  249  A    between atoms: _638  and  _640
REMARK  250  A    between atoms: _640  and  _641
REMARK  251  A    between atoms: _640  and  _643
REMARK  252  A    between atoms: _643  and  _644
REMARK  253  A    between atoms: _649  and  _651
REMARK  254  A    between atoms: _651  and  _652
REMARK  255  A    between atoms: _651  and  _654
REMARK  256  A    between atoms: _654  and  _655
REMARK  257  A    between atoms: _661  and  _663
REMARK  258  A    between atoms: _663  and  _664
REMARK  259  A    between atoms: _663  and  _666
REMARK  260  A    between atoms: _666  and  _667
REMARK  261  A    between atoms: _667  and  _668
REMARK  262  A    between atoms: _671  and  _673
REMARK  263  A    between atoms: _673  and  _674
REMARK  264  A    between atoms: _673  and  _676
REMARK  265  A    between atoms: _676  and  _677
REMARK  266  A    between atoms: _687  and  _689
REMARK  267  A    between atoms: _689  and  _690
REMARK  268  A    between atoms: _689  and  _692
REMARK  269  A    between atoms: _692  and  _693
REMARK  270  A    between atoms: _696  and  _698
REMARK  271  A    between atoms: _698  and  _699
REMARK  272  A    between atoms: _698  and  _701
REMARK  273  A    between atoms: _701  and  _702
REMARK  274  A    between atoms: _704  and  _706
REMARK  275  A    between atoms: _706  and  _707
REMARK  276  A    between atoms: _706  and  _709
REMARK  277  A    between atoms: _709  and  _710
REMARK  278  A    between atoms: _712  and  _714
REMARK  279  A    between atoms: _714  and  _715
REMARK  280  A    between atoms: _714  and  _717
REMARK  281  A    between atoms: _717  and  _718
REMARK                            x       y       z     vdW  Elec       q    Type
REMARK                         _______ _______ _______ _____ _____    ______ ____
ROOT
ATOM      1  O   HOH     1      -0.917  -5.854  55.138  0.00  0.00    +0.000 OA
ENDROOT
TORSDOF 0
REMARK  Name = ../refined-set-2016/3f5k/3f5k_pocket.pdb
REMARK  281 active torsions:
REMARK  status: ('A' for Active; 'I' for Inactive)
REMARK    1  A    between atoms: _1  and  _3
REMARK    2  A    between atoms: _3  and  _4
REMARK    3  A    between atoms: _3  and  _6
REMARK    4  A    between atoms: _9  and  _11
REMARK    5  A    between atoms: _11  and  _12
REMARK    6  A    between atoms: _11  and  _14
REMARK    7  A    between atoms: _14  and  _15
REMARK    8  A    between atoms: _18  and  _20
REMARK    9  A    between atoms: _20  and  _21
REMARK   10  A    between atoms: _20  and  _23
REMARK   11  A    between atoms: _23  and  _24
REMARK   12  A    between atoms: _26  and  _28
REMARK   13  A    between atoms: _28  and  _29
REMARK   14  A    between atoms: _32  and  _34
REMARK   15  A    between atoms: _34  and  _35
REMARK   16  A    between atoms: _34  and  _37
REMARK   17  A    between atoms: _37  and  _38
REMARK   18  A    between atoms: _38  and  _39
REMARK   19  A    between atoms: _44  and  _46
REMARK   20  A    between atoms: _46  and  _47
REMARK   21  A    between atoms: _46  and  _49
REMARK   22  A    between atoms: _49  and  _50
REMARK   23  A    between atoms: _50  and  _51
REMARK   24  A    between atoms: _51  and  _52
REMARK   25  A    between atoms: _61  and  _63
REMARK   26  A    between atoms: _63  and  _64
REMARK   27  A    between atoms: _63  and  _66
REMARK   28  A    between atoms: _66  and  _67
REMARK   29  A    between atoms: _72  and  _74
REMARK   30  A    between atoms: _74  and  _75
REMARK   31  A    between atoms: _74  and  _77
REMARK   32  A    between atoms: _77  and  _78
REMARK   33  A    between atoms: _83  and  _85
REMARK   34  A    between atoms: _85  and  _86
REMARK   35  A    between atoms: _85  and  _88
REMARK   36  A    between atoms: _88  and  _89
REMARK   37  A    between atoms: _94  and  _95
REMARK   38  A    between atoms: _97  and  _99
REMARK   39  A    between atoms: _99  and  _100
REMARK   40  A    between atoms: _99  and  _102
REMARK   41  A    between atoms: _102  and  _103
REMARK   42  A    between atoms: _108  and  _110
REMARK   43  A    between atoms: _110  and  _111
REMARK   44  A    between atoms: _110  and  _113
REMARK   45  A    between atoms: _113  and  _114
REMARK   46  A    between atoms: _114  and  _115
REMARK   47  A    between atoms: _120  and  _122
REMARK   48  A    between atoms: _122  and  _123
REMARK   49  A    between atoms: _122  and  _125
REMARK   50  A    between atoms: _125  and  _126
REMARK   51  A    between atoms: _126  and  _127
REMARK   52  A    between atoms: _127  and  _128
REMARK   53  A    between atoms: _137  and  _139
REMARK   54  A    between atoms: _139  and  _140
REMARK   55  A    between atoms: _139  and  _142
REMARK   56  A    between atoms: _142  and  _143
REMARK   57  A    between atoms: _146  and  _148
REMARK   58  A    between atoms: _148  and  _149
REMARK   59  A    between atoms: _148  and  _151
REMARK   60  A    between atoms: _151  and  _152
REMARK   61  A    between atoms: _155  and  _157
REMARK   62  A    between atoms: _157  and  _158
REMARK   63  A    between atoms: _157  and  _160
REMARK   64  A    between atoms: _160  and  _161
REMARK   65  A    between atoms: _164  and  _166
REMARK   66  A    between atoms: _166  and  _167
REMARK   67  A    between atoms: _166  and  _169
REMARK   68  A    between atoms: _169  and  _170
REMARK   69  A    between atoms: _173  and  _175
REMARK   70  A    between atoms: _175  and  _176
REMARK   71  A    between atoms: _175  and  _178
REMARK   72  A    between atoms: _178  and  _179
REMARK   73  A    between atoms: _179  and  _180
REMARK   74  A    between atoms: _185  and  _187
REMARK   75  A    between atoms: _187  and  _188
REMARK   76  A    between atoms: _187  and  _190
REMARK   77  A    between atoms: _190  and  _191
REMARK   78  A    between atoms: _194  and  _196
REMARK   79  A    between atoms: _196  and  _197
REMARK   80  A    between atoms: _196  and  _199
REMARK   81  A    between atoms: _199  and  _200
REMARK   82  A    between atoms: _205  and  _207
REMARK   83  A    between atoms: _207  and  _208
REMARK   84  A    between atoms: _207  and  _210
REMARK   85  A    between atoms: _213  and  _215
REMARK   86  A    between atoms: _215  and  _216
REMARK   87  A    between atoms: _215  and  _218
REMARK   88  A    between atoms: _218  and  _219
REMARK   89  A    between atoms: _222  and  _224
REMARK   90  A    between atoms: _224  and  _225
REMARK   91  A    between atoms: _224  and  _227
REMARK   92  A    between atoms: _227  and  _228
REMARK   93  A    between atoms: _231  and  _233
REMARK   94  A    between atoms: _233  and  _234
REMARK   95  A    between atoms: _233  and  _236
REMARK   96  A    between atoms: _236  and  _237
REMARK   97  A    between atoms: _243  and  _245
REMARK   98  A    between atoms: _245  and  _246
REMARK   99  A    between atoms: _245  and  _248
REMARK  100  A    between atoms: _248  and  _249
REMARK  101  A    between atoms: _254  and  _256
REMARK  102  A    between atoms: _256  and  _257
REMARK  103  A    between atoms: _256  and  _259
REMARK  104  A    between atoms: _259  and  _260
REMARK  105  A    between atoms: _270  and  _272
REMARK  106  A    between atoms: _272  and  _273
REMARK  107  A    between atoms: _272  and  _275
REMARK  108  A    between atoms: _275  and  _276
REMARK  109  A    between atoms: _281  and  _282
REMARK  110  A    between atoms: _284  and  _286
REMARK  111  A    between atoms: _286  and  _287
REMARK  112  A    between atoms: _286  and  _289
REMARK  113  A    between atoms: _289  and  _290
REMARK  114  A    between atoms: _295  and  _297
REMARK  115  A    between atoms: _297  and  _298
REMARK  116  A    between atoms: _297  and  _300
REMARK  117  A    between atoms: _300  and  _301
REMARK  118  A    between atoms: _306  and  _308
REMARK  119  A    between atoms: _308  and  _309
REMARK  120  A    between atoms: _308  and  _311
REMARK  121  A    between atoms: _311  and  _312
REMARK  122  A    between atoms: _312  and  _313
REMARK  123  A    between atoms: _318  and  _320
REMARK  124  A    between atoms: _320  and  _321
REMARK  125  A    between atoms: _320  and  _323
REMARK  126  A    between atoms: _323  and  _324
REMARK  127  A    between atoms: _329  and  _330
REMARK  128  A    between atoms: _332  and  _334
REMARK  129  A    between atoms: _334  and  _335
REMARK  130  A    between atoms: _334  and  _337
REMARK  131  A    between atoms: _337  and  _338
REMARK  132  A    between atoms: _341  and  _343
REMARK  133  A    between atoms: _343  and  _344
REMARK  134  A    between atoms: _347  and  _349
REMARK  135  A    between atoms: _349  and  _350
REMARK  136  A    between atoms: _349  and  _352
REMARK  137  A    between atoms: _352  and  _353
REMARK  138  A    between atoms: _355  and  _357
REMARK  139  A    between atoms: _357  and  _358
REMARK  140  A    between atoms: _357  and  _360
REMARK  141  A    between atoms: _360  and  _361
REMARK  142  A    between atoms: _361  and  _362
REMARK  143  A    between atoms: _364  and  _366
REMARK  144  A    between atoms: _366  and  _367
REMARK  145  A    between atoms: _366  and  _369
REMARK  146  A    between atoms: _369  and  _370
REMARK  147  A    between atoms: _370  and  _371
REMARK  148  A    between atoms: _376  and  _378
REMARK  149  A    between atoms: _378  and  _379
REMARK  150  A    between atoms: _378  and  _381
REMARK  151  A    between atoms: _381  and  _382
REMARK  152  A    between atoms: _384  and  _386
REMARK  153  A    between atoms: _386  and  _387
REMARK  154  A    between atoms: _386  and  _389
REMARK  155  A    between atoms: _389  and  _390
REMARK  156  A    between atoms: _395  and  _396
REMARK  157  A    between atoms: _398  and  _400
REMARK  158  A    between atoms: _400  and  _401
REMARK  159  A    between atoms: _400  and  _403
REMARK  160  A    between atoms: _403  and  _404
REMARK  161  A    between atoms: _406  and  _408
REMARK  162  A    between atoms: _408  and  _409
REMARK  163  A    between atoms: _412  and  _414
REMARK  164  A    between atoms: _414  and  _415
REMARK  165  A    between atoms: _414  and  _417
REMARK  166  A    between atoms: _417  and  _418
REMARK  167  A    between atoms: _428  and  _430
REMARK  168  A    between atoms: _430  and  _431
REMARK  169  A    between atoms: _430  and  _433
REMARK  170  A    between atoms: _433  and  _434
REMARK  171  A    between atoms: _434  and  _435
REMARK  172  A    between atoms: _440  and  _442
REMARK  173  A    between atoms: _442  and  _443
REMARK  174  A    between atoms: _442  and  _445
REMARK  175  A    between atoms: _448  and  _450
REMARK  176  A    between atoms: _450  and  _451
REMARK  177  A    between atoms: _450  and  _453
REMARK  178  A    between atoms: _453  and  _454
REMARK  179  A    between atoms: _457  and  _459
REMARK  180  A    between atoms: _459  and  _460
REMARK  181  A    between atoms: _459  and  _462
REMARK  182  A    between atoms: _462  and  _463
REMARK  183  A    between atoms: _468  and  _469
REMARK  184  A    between atoms: _471  and  _473
REMARK  185  A    between atoms: _473  and  _474
REMARK  186  A    between atoms: _473  and  _476
REMARK  187  A    between atoms: _479  and  _481
REMARK  188  A    between atoms: _481  and  _482
REMARK  189  A    between atoms: _481  and  _484
REMARK  190  A    between atoms: _484  and  _485
REMARK  191  A    between atoms: _491  and  _493
REMARK  192  A    between atoms: _493  and  _494
REMARK  193  A    between atoms: _493  and  _496
REMARK  194  A    between atoms: _496  and  _497
REMARK  195  A    between atoms: _497  and  _498
REMARK  196  A    between atoms: _503  and  _505
REMARK  197  A    between atoms: _505  and  _506
REMARK  198  A    between atoms: _505  and  _508
REMARK  199  A    between atoms: _508  and  _509
REMARK  200  A    between atoms: _511  and  _513
REMARK  201  A    between atoms: _513  and  _514
REMARK  202  A    between atoms: _513  and  _516
REMARK  203  A    between atoms: _516  and  _517
REMARK  204  A    between atoms: _522  and  _524
REMARK  205  A    between atoms: _524  and  _525
REMARK  206  A    between atoms: _524  and  _527
REMARK  207  A    between atoms: _527  and  _528
REMARK  208  A    between atoms: _538  and  _540
REMARK  209  A    between atoms: _540  and  _541
REMARK  210  A    between atoms: _540  and  _543
REMARK  211  A    between atoms: _543  and  _544
REMARK  212  A    between atoms: _547  and  _549
REMARK  213  A    between atoms: _549  and  _550
REMARK  214  A    between atoms: _549  and  _552
REMARK  215  A    between atoms: _552  and  _553
REMARK  216  A    between atoms: _558  and  _559
REMARK  217  A    between atoms: _561  and  _563
REMARK  218  A    between atoms: _563  and  _564
REMARK  219  A    between atoms: _563  and  _566
REMARK  220  A    between atoms: _566  and  _567
REMARK  221  A    between atoms: _570  and  _572
REMARK  222  A    between atoms: _572  and  _573
REMARK  223  A    between atoms: _572  and  _575
REMARK  224  A    between atoms: _575  and  _576
REMARK  225  A    between atoms: _576  and  _577
REMARK  226  A    between atoms: _580  and  _582
REMARK  227  A    between atoms: _582  and  _583
REMARK  228  A    between atoms: _582  and  _585
REMARK  229  A    between atoms: _585  and  _586
REMARK  230  A    between atoms: _591  and  _593
REMARK  231  A    between atoms: _593  and  _594
REMARK  232  A    between atoms: _596  and  _598
REMARK  233  A    between atoms: _598  and  _599
REMARK  234  A    between atoms: _598  and  _601
REMARK  235  A    between atoms: _601  and  _602
REMARK  236  A    between atoms: _602  and  _603
REMARK  237  A    between atoms: _605  and  _607
REMARK  238  A    between atoms: _607  and  _608
REMARK  239  A    between atoms: _607  and  _610
REMARK  240  A    between atoms: _610  and  _611
REMARK  241  A    between atoms: _614  and  _616
REMARK  242  A    between atoms: _616  and  _617
REMARK  243  A    between atoms: _616  and  _619
REMARK  244  A    between atoms: _619  and  _620
REMARK  245  A    between atoms: _630  and  _632
REMARK  246  A    between atoms: _632  and  _633
REMARK  247  A    between atoms: _632  and  _635
REMARK  248  A    between atoms: _635  and  _636
REMARK  249  A    between atoms: _638  and  _640
REMARK  250  A    between atoms: _640  and  _641
REMARK  251  A    between atoms: _640  and  _643
REMARK  252  A    between atoms: _643  and  _644
REMARK  253  A    between atoms: _649  and  _651
REMARK  254  A    between atoms: _651  and  _652
REMARK  255  A    between atoms: _651  and  _654
REMARK  256  A    between atoms: _654  and  _655
REMARK  257  A    between atoms: _661  and  _663
REMARK  258  A    between atoms: _663  and  _664
REMARK  259  A    between atoms: _663  and  _666
REMARK  260  A    between atoms: _666  and  _667
REMARK  261  A    between atoms: _667  and  _668
REMARK  262  A    between atoms: _671  and  _673
REMARK  263  A    between atoms: _673  and  _674
REMARK  264  A    between atoms: _673  and  _676
REMARK  265  A    between atoms: _676  and  _677
REMARK  266  A    between atoms: _687  and  _689
REMARK  267  A    between atoms: _689  and  _690
REMARK  268  A    between atoms: _689  and  _692
REMARK  269  A    between atoms: _692  and  _693
REMARK  270  A    between atoms: _696  and  _698
REMARK  271  A    between atoms: _698  and  _699
REMARK  272  A    between atoms: _698  and  _701
REMARK  273  A    between atoms: _701  and  _702
REMARK  274  A    between atoms: _704  and  _706
REMARK  275  A    between atoms: _706  and  _707
REMARK  276  A    between atoms: _706  and  _709
REMARK  277  A    between atoms: _709  and  _710
REMARK  278  A    between atoms: _712  and  _714
REMARK  279  A    between atoms: _714  and  _715
REMARK  280  A    between atoms: _714  and  _717
REMARK  281  A    between atoms: _717  and  _718
REMARK                            x       y       z     vdW  Elec       q    Type
REMARK                         _______ _______ _______ _____ _____    ______ ____
ROOT
ATOM      1  O   HOH     1      -8.541   0.717  54.990  0.00  0.00    +0.000 OA
ENDROOT
TORSDOF 0
REMARK  Name = ../refined-set-2016/3f5k/3f5k_pocket.pdb
REMARK  281 active torsions:
REMARK  status: ('A' for Active; 'I' for Inactive)
REMARK    1  A    between atoms: _1  and  _3
REMARK    2  A    between atoms: _3  and  _4
REMARK    3  A    between atoms: _3  and  _6
REMARK    4  A    between atoms: _9  and  _11
REMARK    5  A    between atoms: _11  and  _12
REMARK    6  A    between atoms: _11  and  _14
REMARK    7  A    between atoms: _14  and  _15
REMARK    8  A    between atoms: _18  and  _20
REMARK    9  A    between atoms: _20  and  _21
REMARK   10  A    between atoms: _20  and  _23
REMARK   11  A    between atoms: _23  and  _24
REMARK   12  A    between atoms: _26  and  _28
REMARK   13  A    between atoms: _28  and  _29
REMARK   14  A    between atoms: _32  and  _34
REMARK   15  A    between atoms: _34  and  _35
REMARK   16  A    between atoms: _34  and  _37
REMARK   17  A    between atoms: _37  and  _38
REMARK   18  A    between atoms: _38  and  _39
REMARK   19  A    between atoms: _44  and  _46
REMARK   20  A    between atoms: _46  and  _47
REMARK   21  A    between atoms: _46  and  _49
REMARK   22  A    between atoms: _49  and  _50
REMARK   23  A    between atoms: _50  and  _51
REMARK   24  A    between atoms: _51  and  _52
REMARK   25  A    between atoms: _61  and  _63
REMARK   26  A    between atoms: _63  and  _64
REMARK   27  A    between atoms: _63  and  _66
REMARK   28  A    between atoms: _66  and  _67
REMARK   29  A    between atoms: _72  and  _74
REMARK   30  A    between atoms: _74  and  _75
REMARK   31  A    between atoms: _74  and  _77
REMARK   32  A    between atoms: _77  and  _78
REMARK   33  A    between atoms: _83  and  _85
REMARK   34  A    between atoms: _85  and  _86
REMARK   35  A    between atoms: _85  and  _88
REMARK   36  A    between atoms: _88  and  _89
REMARK   37  A    between atoms: _94  and  _95
REMARK   38  A    between atoms: _97  and  _99
REMARK   39  A    between atoms: _99  and  _100
REMARK   40  A    between atoms: _99  and  _102
REMARK   41  A    between atoms: _102  and  _103
REMARK   42  A    between atoms: _108  and  _110
REMARK   43  A    between atoms: _110  and  _111
REMARK   44  A    between atoms: _110  and  _113
REMARK   45  A    between atoms: _113  and  _114
REMARK   46  A    between atoms: _114  and  _115
REMARK   47  A    between atoms: _120  and  _122
REMARK   48  A    between atoms: _122  and  _123
REMARK   49  A    between atoms: _122  and  _125
REMARK   50  A    between atoms: _125  and  _126
REMARK   51  A    between atoms: _126  and  _127
REMARK   52  A    between atoms: _127  and  _128
REMARK   53  A    between atoms: _137  and  _139
REMARK   54  A    between atoms: _139  and  _140
REMARK   55  A    between atoms: _139  and  _142
REMARK   56  A    between atoms: _142  and  _143
REMARK   57  A    between atoms: _146  and  _148
REMARK   58  A    between atoms: _148  and  _149
REMARK   59  A    between atoms: _148  and  _151
REMARK   60  A    between atoms: _151  and  _152
REMARK   61  A    between atoms: _155  and  _157
REMARK   62  A    between atoms: _157  and  _158
REMARK   63  A    between atoms: _157  and  _160
REMARK   64  A    between atoms: _160  and  _161
REMARK   65  A    between atoms: _164  and  _166
REMARK   66  A    between atoms: _166  and  _167
REMARK   67  A    between atoms: _166  and  _169
REMARK   68  A    between atoms: _169  and  _170
REMARK   69  A    between atoms: _173  and  _175
REMARK   70  A    between atoms: _175  and  _176
REMARK   71  A    between atoms: _175  and  _178
REMARK   72  A    between atoms: _178  and  _179
REMARK   73  A    between atoms: _179  and  _180
REMARK   74  A    between atoms: _185  and  _187
REMARK   75  A    between atoms: _187  and  _188
REMARK   76  A    between atoms: _187  and  _190
REMARK   77  A    between atoms: _190  and  _191
REMARK   78  A    between atoms: _194  and  _196
REMARK   79  A    between atoms: _196  and  _197
REMARK   80  A    between atoms: _196  and  _199
REMARK   81  A    between atoms: _199  and  _200
REMARK   82  A    between atoms: _205  and  _207
REMARK   83  A    between atoms: _207  and  _208
REMARK   84  A    between atoms: _207  and  _210
REMARK   85  A    between atoms: _213  and  _215
REMARK   86  A    between atoms: _215  and  _216
REMARK   87  A    between atoms: _215  and  _218
REMARK   88  A    between atoms: _218  and  _219
REMARK   89  A    between atoms: _222  and  _224
REMARK   90  A    between atoms: _224  and  _225
REMARK   91  A    between atoms: _224  and  _227
REMARK   92  A    between atoms: _227  and  _228
REMARK   93  A    between atoms: _231  and  _233
REMARK   94  A    between atoms: _233  and  _234
REMARK   95  A    between atoms: _233  and  _236
REMARK   96  A    between atoms: _236  and  _237
REMARK   97  A    between atoms: _243  and  _245
REMARK   98  A    between atoms: _245  and  _246
REMARK   99  A    between atoms: _245  and  _248
REMARK  100  A    between atoms: _248  and  _249
REMARK  101  A    between atoms: _254  and  _256
REMARK  102  A    between atoms: _256  and  _257
REMARK  103  A    between atoms: _256  and  _259
REMARK  104  A    between atoms: _259  and  _260
REMARK  105  A    between atoms: _270  and  _272
REMARK  106  A    between atoms: _272  and  _273
REMARK  107  A    between atoms: _272  and  _275
REMARK  108  A    between atoms: _275  and  _276
REMARK  109  A    between atoms: _281  and  _282
REMARK  110  A    between atoms: _284  and  _286
REMARK  111  A    between atoms: _286  and  _287
REMARK  112  A    between atoms: _286  and  _289
REMARK  113  A    between atoms: _289  and  _290
REMARK  114  A    between atoms: _295  and  _297
REMARK  115  A    between atoms: _297  and  _298
REMARK  116  A    between atoms: _297  and  _300
REMARK  117  A    between atoms: _300  and  _301
REMARK  118  A    between atoms: _306  and  _308
REMARK  119  A    between atoms: _308  and  _309
REMARK  120  A    between atoms: _308  and  _311
REMARK  121  A    between atoms: _311  and  _312
REMARK  122  A    between atoms: _312  and  _313
REMARK  123  A    between atoms: _318  and  _320
REMARK  124  A    between atoms: _320  and  _321
REMARK  125  A    between atoms: _320  and  _323
REMARK  126  A    between atoms: _323  and  _324
REMARK  127  A    between atoms: _329  and  _330
REMARK  128  A    between atoms: _332  and  _334
REMARK  129  A    between atoms: _334  and  _335
REMARK  130  A    between atoms: _334  and  _337
REMARK  131  A    between atoms: _337  and  _338
REMARK  132  A    between atoms: _341  and  _343
REMARK  133  A    between atoms: _343  and  _344
REMARK  134  A    between atoms: _347  and  _349
REMARK  135  A    between atoms: _349  and  _350
REMARK  136  A    between atoms: _349  and  _352
REMARK  137  A    between atoms: _352  and  _353
REMARK  138  A    between atoms: _355  and  _357
REMARK  139  A    between atoms: _357  and  _358
REMARK  140  A    between atoms: _357  and  _360
REMARK  141  A    between atoms: _360  and  _361
REMARK  142  A    between atoms: _361  and  _362
REMARK  143  A    between atoms: _364  and  _366
REMARK  144  A    between atoms: _366  and  _367
REMARK  145  A    between atoms: _366  and  _369
REMARK  146  A    between atoms: _369  and  _370
REMARK  147  A    between atoms: _370  and  _371
REMARK  148  A    between atoms: _376  and  _378
REMARK  149  A    between atoms: _378  and  _379
REMARK  150  A    between atoms: _378  and  _381
REMARK  151  A    between atoms: _381  and  _382
REMARK  152  A    between atoms: _384  and  _386
REMARK  153  A    between atoms: _386  and  _387
REMARK  154  A    between atoms: _386  and  _389
REMARK  155  A    between atoms: _389  and  _390
REMARK  156  A    between atoms: _395  and  _396
REMARK  157  A    between atoms: _398  and  _400
REMARK  158  A    between atoms: _400  and  _401
REMARK  159  A    between atoms: _400  and  _403
REMARK  160  A    between atoms: _403  and  _404
REMARK  161  A    between atoms: _406  and  _408
REMARK  162  A    between atoms: _408  and  _409
REMARK  163  A    between atoms: _412  and  _414
REMARK  164  A    between atoms: _414  and  _415
REMARK  165  A    between atoms: _414  and  _417
REMARK  166  A    between atoms: _417  and  _418
REMARK  167  A    between atoms: _428  and  _430
REMARK  168  A    between atoms: _430  and  _431
REMARK  169  A    between atoms: _430  and  _433
REMARK  170  A    between atoms: _433  and  _434
REMARK  171  A    between atoms: _434  and  _435
REMARK  172  A    between atoms: _440  and  _442
REMARK  173  A    between atoms: _442  and  _443
REMARK  174  A    between atoms: _442  and  _445
REMARK  175  A    between atoms: _448  and  _450
REMARK  176  A    between atoms: _450  and  _451
REMARK  177  A    between atoms: _450  and  _453
REMARK  178  A    between atoms: _453  and  _454
REMARK  179  A    between atoms: _457  and  _459
REMARK  180  A    between atoms: _459  and  _460
REMARK  181  A    between atoms: _459  and  _462
REMARK  182  A    between atoms: _462  and  _463
REMARK  183  A    between atoms: _468  and  _469
REMARK  184  A    between atoms: _471  and  _473
REMARK  185  A    between atoms: _473  and  _474
REMARK  186  A    between atoms: _473  and  _476
REMARK  187  A    between atoms: _479  and  _481
REMARK  188  A    between atoms: _481  and  _482
REMARK  189  A    between atoms: _481  and  _484
REMARK  190  A    between atoms: _484  and  _485
REMARK  191  A    between atoms: _491  and  _493
REMARK  192  A    between atoms: _493  and  _494
REMARK  193  A    between atoms: _493  and  _496
REMARK  194  A    between atoms: _496  and  _497
REMARK  195  A    between atoms: _497  and  _498
REMARK  196  A    between atoms: _503  and  _505
REMARK  197  A    between atoms: _505  and  _506
REMARK  198  A    between atoms: _505  and  _508
REMARK  199  A    between atoms: _508  and  _509
REMARK  200  A    between atoms: _511  and  _513
REMARK  201  A    between atoms: _513  and  _514
REMARK  202  A    between atoms: _513  and  _516
REMARK  203  A    between atoms: _516  and  _517
REMARK  204  A    between atoms: _522  and  _524
REMARK  205  A    between atoms: _524  and  _525
REMARK  206  A    between atoms: _524  and  _527
REMARK  207  A    between atoms: _527  and  _528
REMARK  208  A    between atoms: _538  and  _540
REMARK  209  A    between atoms: _540  and  _541
REMARK  210  A    between atoms: _540  and  _543
REMARK  211  A    between atoms: _543  and  _544
REMARK  212  A    between atoms: _547  and  _549
REMARK  213  A    between atoms: _549  and  _550
REMARK  214  A    between atoms: _549  and  _552
REMARK  215  A    between atoms: _552  and  _553
REMARK  216  A    between atoms: _558  and  _559
REMARK  217  A    between atoms: _561  and  _563
REMARK  218  A    between atoms: _563  and  _564
REMARK  219  A    between atoms: _563  and  _566
REMARK  220  A    between atoms: _566  and  _567
REMARK  221  A    between atoms: _570  and  _572
REMARK  222  A    between atoms: _572  and  _573
REMARK  223  A    between atoms: _572  and  _575
REMARK  224  A    between atoms: _575  and  _576
REMARK  225  A    between atoms: _576  and  _577
REMARK  226  A    between atoms: _580  and  _582
REMARK  227  A    between atoms: _582  and  _583
REMARK  228  A    between atoms: _582  and  _585
REMARK  229  A    between atoms: _585  and  _586
REMARK  230  A    between atoms: _591  and  _593
REMARK  231  A    between atoms: _593  and  _594
REMARK  232  A    between atoms: _596  and  _598
REMARK  233  A    between atoms: _598  and  _599
REMARK  234  A    between atoms: _598  and  _601
REMARK  235  A    between atoms: _601  and  _602
REMARK  236  A    between atoms: _602  and  _603
REMARK  237  A    between atoms: _605  and  _607
REMARK  238  A    between atoms: _607  and  _608
REMARK  239  A    between atoms: _607  and  _610
REMARK  240  A    between atoms: _610  and  _611
REMARK  241  A    between atoms: _614  and  _616
REMARK  242  A    between atoms: _616  and  _617
REMARK  243  A    between atoms: _616  and  _619
REMARK  244  A    between atoms: _619  and  _620
REMARK  245  A    between atoms: _630  and  _632
REMARK  246  A    between atoms: _632  and  _633
REMARK  247  A    between atoms: _632  and  _635
REMARK  248  A    between atoms: _635  and  _636
REMARK  249  A    between atoms: _638  and  _640
REMARK  250  A    between atoms: _640  and  _641
REMARK  251  A    between atoms: _640  and  _643
REMARK  252  A    between atoms: _643  and  _644
REMARK  253  A    between atoms: _649  and  _651
REMARK  254  A    between atoms: _651  and  _652
REMARK  255  A    between atoms: _651  and  _654
REMARK  256  A    between atoms: _654  and  _655
REMARK  257  A    between atoms: _661  and  _663
REMARK  258  A    between atoms: _663  and  _664
REMARK  259  A    between atoms: _663  and  _666
REMARK  260  A    between atoms: _666  and  _667
REMARK  261  A    between atoms: _667  and  _668
REMARK  262  A    between atoms: _671  and  _673
REMARK  263  A    between atoms: _673  and  _674
REMARK  264  A    between atoms: _673  and  _676
REMARK  265  A    between atoms: _676  and  _677
REMARK  266  A    between atoms: _687  and  _689
REMARK  267  A    between atoms: _689  and  _690
REMARK  268  A    between atoms: _689  and  _692
REMARK  269  A    between atoms: _692  and  _693
REMARK  270  A    between atoms: _696  and  _698
REMARK  271  A    between atoms: _698  and  _699
REMARK  272  A    between atoms: _698  and  _701
REMARK  273  A    between atoms: _701  and  _702
REMARK  274  A    between atoms: _704  and  _706
REMARK  275  A    between atoms: _706  and  _707
REMARK  276  A    between atoms: _706  and  _709
REMARK  277  A    between atoms: _709  and  _710
REMARK  278  A    between atoms: _712  and  _714
REMARK  279  A    between atoms: _714  and  _715
REMARK  280  A    between atoms: _714  and  _717
REMARK  281  A    between atoms: _717  and  _718
REMARK                            x       y       z     vdW  Elec       q    Type
REMARK                         _______ _______ _______ _____ _____    ______ ____
ROOT
ATOM      1  O   HOH     1      -1.769   0.312  56.841  0.00  0.00    +0.000 OA
ENDROOT
TORSDOF 0
REMARK  Name = ../refined-set-2016/3f5k/3f5k_pocket.pdb
REMARK  281 active torsions:
REMARK  status: ('A' for Active; 'I' for Inactive)
REMARK    1  A    between atoms: _1  and  _3
REMARK    2  A    between atoms: _3  and  _4
REMARK    3  A    between atoms: _3  and  _6
REMARK    4  A    between atoms: _9  and  _11
REMARK    5  A    between atoms: _11  and  _12
REMARK    6  A    between atoms: _11  and  _14
REMARK    7  A    between atoms: _14  and  _15
REMARK    8  A    between atoms: _18  and  _20
REMARK    9  A    between atoms: _20  and  _21
REMARK   10  A    between atoms: _20  and  _23
REMARK   11  A    between atoms: _23  and  _24
REMARK   12  A    between atoms: _26  and  _28
REMARK   13  A    between atoms: _28  and  _29
REMARK   14  A    between atoms: _32  and  _34
REMARK   15  A    between atoms: _34  and  _35
REMARK   16  A    between atoms: _34  and  _37
REMARK   17  A    between atoms: _37  and  _38
REMARK   18  A    between atoms: _38  and  _39
REMARK   19  A    between atoms: _44  and  _46
REMARK   20  A    between atoms: _46  and  _47
REMARK   21  A    between atoms: _46  and  _49
REMARK   22  A    between atoms: _49  and  _50
REMARK   23  A    between atoms: _50  and  _51
REMARK   24  A    between atoms: _51  and  _52
REMARK   25  A    between atoms: _61  and  _63
REMARK   26  A    between atoms: _63  and  _64
REMARK   27  A    between atoms: _63  and  _66
REMARK   28  A    between atoms: _66  and  _67
REMARK   29  A    between atoms: _72  and  _74
REMARK   30  A    between atoms: _74  and  _75
REMARK   31  A    between atoms: _74  and  _77
REMARK   32  A    between atoms: _77  and  _78
REMARK   33  A    between atoms: _83  and  _85
REMARK   34  A    between atoms: _85  and  _86
REMARK   35  A    between atoms: _85  and  _88
REMARK   36  A    between atoms: _88  and  _89
REMARK   37  A    between atoms: _94  and  _95
REMARK   38  A    between atoms: _97  and  _99
REMARK   39  A    between atoms: _99  and  _100
REMARK   40  A    between atoms: _99  and  _102
REMARK   41  A    between atoms: _102  and  _103
REMARK   42  A    between atoms: _108  and  _110
REMARK   43  A    between atoms: _110  and  _111
REMARK   44  A    between atoms: _110  and  _113
REMARK   45  A    between atoms: _113  and  _114
REMARK   46  A    between atoms: _114  and  _115
REMARK   47  A    between atoms: _120  and  _122
REMARK   48  A    between atoms: _122  and  _123
REMARK   49  A    between atoms: _122  and  _125
REMARK   50  A    between atoms: _125  and  _126
REMARK   51  A    between atoms: _126  and  _127
REMARK   52  A    between atoms: _127  and  _128
REMARK   53  A    between atoms: _137  and  _139
REMARK   54  A    between atoms: _139  and  _140
REMARK   55  A    between atoms: _139  and  _142
REMARK   56  A    between atoms: _142  and  _143
REMARK   57  A    between atoms: _146  and  _148
REMARK   58  A    between atoms: _148  and  _149
REMARK   59  A    between atoms: _148  and  _151
REMARK   60  A    between atoms: _151  and  _152
REMARK   61  A    between atoms: _155  and  _157
REMARK   62  A    between atoms: _157  and  _158
REMARK   63  A    between atoms: _157  and  _160
REMARK   64  A    between atoms: _160  and  _161
REMARK   65  A    between atoms: _164  and  _166
REMARK   66  A    between atoms: _166  and  _167
REMARK   67  A    between atoms: _166  and  _169
REMARK   68  A    between atoms: _169  and  _170
REMARK   69  A    between atoms: _173  and  _175
REMARK   70  A    between atoms: _175  and  _176
REMARK   71  A    between atoms: _175  and  _178
REMARK   72  A    between atoms: _178  and  _179
REMARK   73  A    between atoms: _179  and  _180
REMARK   74  A    between atoms: _185  and  _187
REMARK   75  A    between atoms: _187  and  _188
REMARK   76  A    between atoms: _187  and  _190
REMARK   77  A    between atoms: _190  and  _191
REMARK   78  A    between atoms: _194  and  _196
REMARK   79  A    between atoms: _196  and  _197
REMARK   80  A    between atoms: _196  and  _199
REMARK   81  A    between atoms: _199  and  _200
REMARK   82  A    between atoms: _205  and  _207
REMARK   83  A    between atoms: _207  and  _208
REMARK   84  A    between atoms: _207  and  _210
REMARK   85  A    between atoms: _213  and  _215
REMARK   86  A    between atoms: _215  and  _216
REMARK   87  A    between atoms: _215  and  _218
REMARK   88  A    between atoms: _218  and  _219
REMARK   89  A    between atoms: _222  and  _224
REMARK   90  A    between atoms: _224  and  _225
REMARK   91  A    between atoms: _224  and  _227
REMARK   92  A    between atoms: _227  and  _228
REMARK   93  A    between atoms: _231  and  _233
REMARK   94  A    between atoms: _233  and  _234
REMARK   95  A    between atoms: _233  and  _236
REMARK   96  A    between atoms: _236  and  _237
REMARK   97  A    between atoms: _243  and  _245
REMARK   98  A    between atoms: _245  and  _246
REMARK   99  A    between atoms: _245  and  _248
REMARK  100  A    between atoms: _248  and  _249
REMARK  101  A    between atoms: _254  and  _256
REMARK  102  A    between atoms: _256  and  _257
REMARK  103  A    between atoms: _256  and  _259
REMARK  104  A    between atoms: _259  and  _260
REMARK  105  A    between atoms: _270  and  _272
REMARK  106  A    between atoms: _272  and  _273
REMARK  107  A    between atoms: _272  and  _275
REMARK  108  A    between atoms: _275  and  _276
REMARK  109  A    between atoms: _281  and  _282
REMARK  110  A    between atoms: _284  and  _286
REMARK  111  A    between atoms: _286  and  _287
REMARK  112  A    between atoms: _286  and  _289
REMARK  113  A    between atoms: _289  and  _290
REMARK  114  A    between atoms: _295  and  _297
REMARK  115  A    between atoms: _297  and  _298
REMARK  116  A    between atoms: _297  and  _300
REMARK  117  A    between atoms: _300  and  _301
REMARK  118  A    between atoms: _306  and  _308
REMARK  119  A    between atoms: _308  and  _309
REMARK  120  A    between atoms: _308  and  _311
REMARK  121  A    between atoms: _311  and  _312
REMARK  122  A    between atoms: _312  and  _313
REMARK  123  A    between atoms: _318  and  _320
REMARK  124  A    between atoms: _320  and  _321
REMARK  125  A    between atoms: _320  and  _323
REMARK  126  A    between atoms: _323  and  _324
REMARK  127  A    between atoms: _329  and  _330
REMARK  128  A    between atoms: _332  and  _334
REMARK  129  A    between atoms: _334  and  _335
REMARK  130  A    between atoms: _334  and  _337
REMARK  131  A    between atoms: _337  and  _338
REMARK  132  A    between atoms: _341  and  _343
REMARK  133  A    between atoms: _343  and  _344
REMARK  134  A    between atoms: _347  and  _349
REMARK  135  A    between atoms: _349  and  _350
REMARK  136  A    between atoms: _349  and  _352
REMARK  137  A    between atoms: _352  and  _353
REMARK  138  A    between atoms: _355  and  _357
REMARK  139  A    between atoms: _357  and  _358
REMARK  140  A    between atoms: _357  and  _360
REMARK  141  A    between atoms: _360  and  _361
REMARK  142  A    between atoms: _361  and  _362
REMARK  143  A    between atoms: _364  and  _366
REMARK  144  A    between atoms: _366  and  _367
REMARK  145  A    between atoms: _366  and  _369
REMARK  146  A    between atoms: _369  and  _370
REMARK  147  A    between atoms: _370  and  _371
REMARK  148  A    between atoms: _376  and  _378
REMARK  149  A    between atoms: _378  and  _379
REMARK  150  A    between atoms: _378  and  _381
REMARK  151  A    between atoms: _381  and  _382
REMARK  152  A    between atoms: _384  and  _386
REMARK  153  A    between atoms: _386  and  _387
REMARK  154  A    between atoms: _386  and  _389
REMARK  155  A    between atoms: _389  and  _390
REMARK  156  A    between atoms: _395  and  _396
REMARK  157  A    between atoms: _398  and  _400
REMARK  158  A    between atoms: _400  and  _401
REMARK  159  A    between atoms: _400  and  _403
REMARK  160  A    between atoms: _403  and  _404
REMARK  161  A    between atoms: _406  and  _408
REMARK  162  A    between atoms: _408  and  _409
REMARK  163  A    between atoms: _412  and  _414
REMARK  164  A    between atoms: _414  and  _415
REMARK  165  A    between atoms: _414  and  _417
REMARK  166  A    between atoms: _417  and  _418
REMARK  167  A    between atoms: _428  and  _430
REMARK  168  A    between atoms: _430  and  _431
REMARK  169  A    between atoms: _430  and  _433
REMARK  170  A    between atoms: _433  and  _434
REMARK  171  A    between atoms: _434  and  _435
REMARK  172  A    between atoms: _440  and  _442
REMARK  173  A    between atoms: _442  and  _443
REMARK  174  A    between atoms: _442  and  _445
REMARK  175  A    between atoms: _448  and  _450
REMARK  176  A    between atoms: _450  and  _451
REMARK  177  A    between atoms: _450  and  _453
REMARK  178  A    between atoms: _453  and  _454
REMARK  179  A    between atoms: _457  and  _459
REMARK  180  A    between atoms: _459  and  _460
REMARK  181  A    between atoms: _459  and  _462
REMARK  182  A    between atoms: _462  and  _463
REMARK  183  A    between atoms: _468  and  _469
REMARK  184  A    between atoms: _471  and  _473
REMARK  185  A    between atoms: _473  and  _474
REMARK  186  A    between atoms: _473  and  _476
REMARK  187  A    between atoms: _479  and  _481
REMARK  188  A    between atoms: _481  and  _482
REMARK  189  A    between atoms: _481  and  _484
REMARK  190  A    between atoms: _484  and  _485
REMARK  191  A    between atoms: _491  and  _493
REMARK  192  A    between atoms: _493  and  _494
REMARK  193  A    between atoms: _493  and  _496
REMARK  194  A    between atoms: _496  and  _497
REMARK  195  A    between atoms: _497  and  _498
REMARK  196  A    between atoms: _503  and  _505
REMARK  197  A    between atoms: _505  and  _506
REMARK  198  A    between atoms: _505  and  _508
REMARK  199  A    between atoms: _508  and  _509
REMARK  200  A    between atoms: _511  and  _513
REMARK  201  A    between atoms: _513  and  _514
REMARK  202  A    between atoms: _513  and  _516
REMARK  203  A    between atoms: _516  and  _517
REMARK  204  A    between atoms: _522  and  _524
REMARK  205  A    between atoms: _524  and  _525
REMARK  206  A    between atoms: _524  and  _527
REMARK  207  A    between atoms: _527  and  _528
REMARK  208  A    between atoms: _538  and  _540
REMARK  209  A    between atoms: _540  and  _541
REMARK  210  A    between atoms: _540  and  _543
REMARK  211  A    between atoms: _543  and  _544
REMARK  212  A    between atoms: _547  and  _549
REMARK  213  A    between atoms: _549  and  _550
REMARK  214  A    between atoms: _549  and  _552
REMARK  215  A    between atoms: _552  and  _553
REMARK  216  A    between atoms: _558  and  _559
REMARK  217  A    between atoms: _561  and  _563
REMARK  218  A    between atoms: _563  and  _564
REMARK  219  A    between atoms: _563  and  _566
REMARK  220  A    between atoms: _566  and  _567
REMARK  221  A    between atoms: _570  and  _572
REMARK  222  A    between atoms: _572  and  _573
REMARK  223  A    between atoms: _572  and  _575
REMARK  224  A    between atoms: _575  and  _576
REMARK  225  A    between atoms: _576  and  _577
REMARK  226  A    between atoms: _580  and  _582
REMARK  227  A    between atoms: _582  and  _583
REMARK  228  A    between atoms: _582  and  _585
REMARK  229  A    between atoms: _585  and  _586
REMARK  230  A    between atoms: _591  and  _593
REMARK  231  A    between atoms: _593  and  _594
REMARK  232  A    between atoms: _596  and  _598
REMARK  233  A    between atoms: _598  and  _599
REMARK  234  A    between atoms: _598  and  _601
REMARK  235  A    between atoms: _601  and  _602
REMARK  236  A    between atoms: _602  and  _603
REMARK  237  A    between atoms: _605  and  _607
REMARK  238  A    between atoms: _607  and  _608
REMARK  239  A    between atoms: _607  and  _610
REMARK  240  A    between atoms: _610  and  _611
REMARK  241  A    between atoms: _614  and  _616
REMARK  242  A    between atoms: _616  and  _617
REMARK  243  A    between atoms: _616  and  _619
REMARK  244  A    between atoms: _619  and  _620
REMARK  245  A    between atoms: _630  and  _632
REMARK  246  A    between atoms: _632  and  _633
REMARK  247  A    between atoms: _632  and  _635
REMARK  248  A    between atoms: _635  and  _636
REMARK  249  A    between atoms: _638  and  _640
REMARK  250  A    between atoms: _640  and  _641
REMARK  251  A    between atoms: _640  and  _643
REMARK  252  A    between atoms: _643  and  _644
REMARK  253  A    between atoms: _649  and  _651
REMARK  254  A    between atoms: _651  and  _652
REMARK  255  A    between atoms: _651  and  _654
REMARK  256  A    between atoms: _654  and  _655
REMARK  257  A    between atoms: _661  and  _663
REMARK  258  A    between atoms: _663  and  _664
REMARK  259  A    between atoms: _663  and  _666
REMARK  260  A    between atoms: _666  and  _667
REMARK  261  A    between atoms: _667  and  _668
REMARK  262  A    between atoms: _671  and  _673
REMARK  263  A    between atoms: _673  and  _674
REMARK  264  A    between atoms: _673  and  _676
REMARK  265  A    between atoms: _676  and  _677
REMARK  266  A    between atoms: _687  and  _689
REMARK  267  A    between atoms: _689  and  _690
REMARK  268  A    between atoms: _689  and  _692
REMARK  269  A    between atoms: _692  and  _693
REMARK  270  A    between atoms: _696  and  _698
REMARK  271  A    between atoms: _698  and  _699
REMARK  272  A    between atoms: _698  and  _701
REMARK  273  A    between atoms: _701  and  _702
REMARK  274  A    between atoms: _704  and  _706
REMARK  275  A    between atoms: _706  and  _707
REMARK  276  A    between atoms: _706  and  _709
REMARK  277  A    between atoms: _709  and  _710
REMARK  278  A    between atoms: _712  and  _714
REMARK  279  A    between atoms: _714  and  _715
REMARK  280  A    between atoms: _714  and  _717
REMARK  281  A    between atoms: _717  and  _718
REMARK                            x       y       z     vdW  Elec       q    Type
REMARK                         _______ _______ _______ _____ _____    ______ ____
ROOT
ATOM      1  O   HOH     1      -1.804   2.817  37.901  0.00  0.00    +0.000 OA
ENDROOT
TORSDOF 0
REMARK  Name = ../refined-set-2016/3f5k/3f5k_pocket.pdb
REMARK  281 active torsions:
REMARK  status: ('A' for Active; 'I' for Inactive)
REMARK    1  A    between atoms: _1  and  _3
REMARK    2  A    between atoms: _3  and  _4
REMARK    3  A    between atoms: _3  and  _6
REMARK    4  A    between atoms: _9  and  _11
REMARK    5  A    between atoms: _11  and  _12
REMARK    6  A    between atoms: _11  and  _14
REMARK    7  A    between atoms: _14  and  _15
REMARK    8  A    between atoms: _18  and  _20
REMARK    9  A    between atoms: _20  and  _21
REMARK   10  A    between atoms: _20  and  _23
REMARK   11  A    between atoms: _23  and  _24
REMARK   12  A    between atoms: _26  and  _28
REMARK   13  A    between atoms: _28  and  _29
REMARK   14  A    between atoms: _32  and  _34
REMARK   15  A    between atoms: _34  and  _35
REMARK   16  A    between atoms: _34  and  _37
REMARK   17  A    between atoms: _37  and  _38
REMARK   18  A    between atoms: _38  and  _39
REMARK   19  A    between atoms: _44  and  _46
REMARK   20  A    between atoms: _46  and  _47
REMARK   21  A    between atoms: _46  and  _49
REMARK   22  A    between atoms: _49  and  _50
REMARK   23  A    between atoms: _50  and  _51
REMARK   24  A    between atoms: _51  and  _52
REMARK   25  A    between atoms: _61  and  _63
REMARK   26  A    between atoms: _63  and  _64
REMARK   27  A    between atoms: _63  and  _66
REMARK   28  A    between atoms: _66  and  _67
REMARK   29  A    between atoms: _72  and  _74
REMARK   30  A    between atoms: _74  and  _75
REMARK   31  A    between atoms: _74  and  _77
REMARK   32  A    between atoms: _77  and  _78
REMARK   33  A    between atoms: _83  and  _85
REMARK   34  A    between atoms: _85  and  _86
REMARK   35  A    between atoms: _85  and  _88
REMARK   36  A    between atoms: _88  and  _89
REMARK   37  A    between atoms: _94  and  _95
REMARK   38  A    between atoms: _97  and  _99
REMARK   39  A    between atoms: _99  and  _100
REMARK   40  A    between atoms: _99  and  _102
REMARK   41  A    between atoms: _102  and  _103
REMARK   42  A    between atoms: _108  and  _110
REMARK   43  A    between atoms: _110  and  _111
REMARK   44  A    between atoms: _110  and  _113
REMARK   45  A    between atoms: _113  and  _114
REMARK   46  A    between atoms: _114  and  _115
REMARK   47  A    between atoms: _120  and  _122
REMARK   48  A    between atoms: _122  and  _123
REMARK   49  A    between atoms: _122  and  _125
REMARK   50  A    between atoms: _125  and  _126
REMARK   51  A    between atoms: _126  and  _127
REMARK   52  A    between atoms: _127  and  _128
REMARK   53  A    between atoms: _137  and  _139
REMARK   54  A    between atoms: _139  and  _140
REMARK   55  A    between atoms: _139  and  _142
REMARK   56  A    between atoms: _142  and  _143
REMARK   57  A    between atoms: _146  and  _148
REMARK   58  A    between atoms: _148  and  _149
REMARK   59  A    between atoms: _148  and  _151
REMARK   60  A    between atoms: _151  and  _152
REMARK   61  A    between atoms: _155  and  _157
REMARK   62  A    between atoms: _157  and  _158
REMARK   63  A    between atoms: _157  and  _160
REMARK   64  A    between atoms: _160  and  _161
REMARK   65  A    between atoms: _164  and  _166
REMARK   66  A    between atoms: _166  and  _167
REMARK   67  A    between atoms: _166  and  _169
REMARK   68  A    between atoms: _169  and  _170
REMARK   69  A    between atoms: _173  and  _175
REMARK   70  A    between atoms: _175  and  _176
REMARK   71  A    between atoms: _175  and  _178
REMARK   72  A    between atoms: _178  and  _179
REMARK   73  A    between atoms: _179  and  _180
REMARK   74  A    between atoms: _185  and  _187
REMARK   75  A    between atoms: _187  and  _188
REMARK   76  A    between atoms: _187  and  _190
REMARK   77  A    between atoms: _190  and  _191
REMARK   78  A    between atoms: _194  and  _196
REMARK   79  A    between atoms: _196  and  _197
REMARK   80  A    between atoms: _196  and  _199
REMARK   81  A    between atoms: _199  and  _200
REMARK   82  A    between atoms: _205  and  _207
REMARK   83  A    between atoms: _207  and  _208
REMARK   84  A    between atoms: _207  and  _210
REMARK   85  A    between atoms: _213  and  _215
REMARK   86  A    between atoms: _215  and  _216
REMARK   87  A    between atoms: _215  and  _218
REMARK   88  A    between atoms: _218  and  _219
REMARK   89  A    between atoms: _222  and  _224
REMARK   90  A    between atoms: _224  and  _225
REMARK   91  A    between atoms: _224  and  _227
REMARK   92  A    between atoms: _227  and  _228
REMARK   93  A    between atoms: _231  and  _233
REMARK   94  A    between atoms: _233  and  _234
REMARK   95  A    between atoms: _233  and  _236
REMARK   96  A    between atoms: _236  and  _237
REMARK   97  A    between atoms: _243  and  _245
REMARK   98  A    between atoms: _245  and  _246
REMARK   99  A    between atoms: _245  and  _248
REMARK  100  A    between atoms: _248  and  _249
REMARK  101  A    between atoms: _254  and  _256
REMARK  102  A    between atoms: _256  and  _257
REMARK  103  A    between atoms: _256  and  _259
REMARK  104  A    between atoms: _259  and  _260
REMARK  105  A    between atoms: _270  and  _272
REMARK  106  A    between atoms: _272  and  _273
REMARK  107  A    between atoms: _272  and  _275
REMARK  108  A    between atoms: _275  and  _276
REMARK  109  A    between atoms: _281  and  _282
REMARK  110  A    between atoms: _284  and  _286
REMARK  111  A    between atoms: _286  and  _287
REMARK  112  A    between atoms: _286  and  _289
REMARK  113  A    between atoms: _289  and  _290
REMARK  114  A    between atoms: _295  and  _297
REMARK  115  A    between atoms: _297  and  _298
REMARK  116  A    between atoms: _297  and  _300
REMARK  117  A    between atoms: _300  and  _301
REMARK  118  A    between atoms: _306  and  _308
REMARK  119  A    between atoms: _308  and  _309
REMARK  120  A    between atoms: _308  and  _311
REMARK  121  A    between atoms: _311  and  _312
REMARK  122  A    between atoms: _312  and  _313
REMARK  123  A    between atoms: _318  and  _320
REMARK  124  A    between atoms: _320  and  _321
REMARK  125  A    between atoms: _320  and  _323
REMARK  126  A    between atoms: _323  and  _324
REMARK  127  A    between atoms: _329  and  _330
REMARK  128  A    between atoms: _332  and  _334
REMARK  129  A    between atoms: _334  and  _335
REMARK  130  A    between atoms: _334  and  _337
REMARK  131  A    between atoms: _337  and  _338
REMARK  132  A    between atoms: _341  and  _343
REMARK  133  A    between atoms: _343  and  _344
REMARK  134  A    between atoms: _347  and  _349
REMARK  135  A    between atoms: _349  and  _350
REMARK  136  A    between atoms: _349  and  _352
REMARK  137  A    between atoms: _352  and  _353
REMARK  138  A    between atoms: _355  and  _357
REMARK  139  A    between atoms: _357  and  _358
REMARK  140  A    between atoms: _357  and  _360
REMARK  141  A    between atoms: _360  and  _361
REMARK  142  A    between atoms: _361  and  _362
REMARK  143  A    between atoms: _364  and  _366
REMARK  144  A    between atoms: _366  and  _367
REMARK  145  A    between atoms: _366  and  _369
REMARK  146  A    between atoms: _369  and  _370
REMARK  147  A    between atoms: _370  and  _371
REMARK  148  A    between atoms: _376  and  _378
REMARK  149  A    between atoms: _378  and  _379
REMARK  150  A    between atoms: _378  and  _381
REMARK  151  A    between atoms: _381  and  _382
REMARK  152  A    between atoms: _384  and  _386
REMARK  153  A    between atoms: _386  and  _387
REMARK  154  A    between atoms: _386  and  _389
REMARK  155  A    between atoms: _389  and  _390
REMARK  156  A    between atoms: _395  and  _396
REMARK  157  A    between atoms: _398  and  _400
REMARK  158  A    between atoms: _400  and  _401
REMARK  159  A    between atoms: _400  and  _403
REMARK  160  A    between atoms: _403  and  _404
REMARK  161  A    between atoms: _406  and  _408
REMARK  162  A    between atoms: _408  and  _409
REMARK  163  A    between atoms: _412  and  _414
REMARK  164  A    between atoms: _414  and  _415
REMARK  165  A    between atoms: _414  and  _417
REMARK  166  A    between atoms: _417  and  _418
REMARK  167  A    between atoms: _428  and  _430
REMARK  168  A    between atoms: _430  and  _431
REMARK  169  A    between atoms: _430  and  _433
REMARK  170  A    between atoms: _433  and  _434
REMARK  171  A    between atoms: _434  and  _435
REMARK  172  A    between atoms: _440  and  _442
REMARK  173  A    between atoms: _442  and  _443
REMARK  174  A    between atoms: _442  and  _445
REMARK  175  A    between atoms: _448  and  _450
REMARK  176  A    between atoms: _450  and  _451
REMARK  177  A    between atoms: _450  and  _453
REMARK  178  A    between atoms: _453  and  _454
REMARK  179  A    between atoms: _457  and  _459
REMARK  180  A    between atoms: _459  and  _460
REMARK  181  A    between atoms: _459  and  _462
REMARK  182  A    between atoms: _462  and  _463
REMARK  183  A    between atoms: _468  and  _469
REMARK  184  A    between atoms: _471  and  _473
REMARK  185  A    between atoms: _473  and  _474
REMARK  186  A    between atoms: _473  and  _476
REMARK  187  A    between atoms: _479  and  _481
REMARK  188  A    between atoms: _481  and  _482
REMARK  189  A    between atoms: _481  and  _484
REMARK  190  A    between atoms: _484  and  _485
REMARK  191  A    between atoms: _491  and  _493
REMARK  192  A    between atoms: _493  and  _494
REMARK  193  A    between atoms: _493  and  _496
REMARK  194  A    between atoms: _496  and  _497
REMARK  195  A    between atoms: _497  and  _498
REMARK  196  A    between atoms: _503  and  _505
REMARK  197  A    between atoms: _505  and  _506
REMARK  198  A    between atoms: _505  and  _508
REMARK  199  A    between atoms: _508  and  _509
REMARK  200  A    between atoms: _511  and  _513
REMARK  201  A    between atoms: _513  and  _514
REMARK  202  A    between atoms: _513  and  _516
REMARK  203  A    between atoms: _516  and  _517
REMARK  204  A    between atoms: _522  and  _524
REMARK  205  A    between atoms: _524  and  _525
REMARK  206  A    between atoms: _524  and  _527
REMARK  207  A    between atoms: _527  and  _528
REMARK  208  A    between atoms: _538  and  _540
REMARK  209  A    between atoms: _540  and  _541
REMARK  210  A    between atoms: _540  and  _543
REMARK  211  A    between atoms: _543  and  _544
REMARK  212  A    between atoms: _547  and  _549
REMARK  213  A    between atoms: _549  and  _550
REMARK  214  A    between atoms: _549  and  _552
REMARK  215  A    between atoms: _552  and  _553
REMARK  216  A    between atoms: _558  and  _559
REMARK  217  A    between atoms: _561  and  _563
REMARK  218  A    between atoms: _563  and  _564
REMARK  219  A    between atoms: _563  and  _566
REMARK  220  A    between atoms: _566  and  _567
REMARK  221  A    between atoms: _570  and  _572
REMARK  222  A    between atoms: _572  and  _573
REMARK  223  A    between atoms: _572  and  _575
REMARK  224  A    between atoms: _575  and  _576
REMARK  225  A    between atoms: _576  and  _577
REMARK  226  A    between atoms: _580  and  _582
REMARK  227  A    between atoms: _582  and  _583
REMARK  228  A    between atoms: _582  and  _585
REMARK  229  A    between atoms: _585  and  _586
REMARK  230  A    between atoms: _591  and  _593
REMARK  231  A    between atoms: _593  and  _594
REMARK  232  A    between atoms: _596  and  _598
REMARK  233  A    between atoms: _598  and  _599
REMARK  234  A    between atoms: _598  and  _601
REMARK  235  A    between atoms: _601  and  _602
REMARK  236  A    between atoms: _602  and  _603
REMARK  237  A    between atoms: _605  and  _607
REMARK  238  A    between atoms: _607  and  _608
REMARK  239  A    between atoms: _607  and  _610
REMARK  240  A    between atoms: _610  and  _611
REMARK  241  A    between atoms: _614  and  _616
REMARK  242  A    between atoms: _616  and  _617
REMARK  243  A    between atoms: _616  and  _619
REMARK  244  A    between atoms: _619  and  _620
REMARK  245  A    between atoms: _630  and  _632
REMARK  246  A    between atoms: _632  and  _633
REMARK  247  A    between atoms: _632  and  _635
REMARK  248  A    between atoms: _635  and  _636
REMARK  249  A    between atoms: _638  and  _640
REMARK  250  A    between atoms: _640  and  _641
REMARK  251  A    between atoms: _640  and  _643
REMARK  252  A    between atoms: _643  and  _644
REMARK  253  A    between atoms: _649  and  _651
REMARK  254  A    between atoms: _651  and  _652
REMARK  255  A    between atoms: _651  and  _654
REMARK  256  A    between atoms: _654  and  _655
REMARK  257  A    between atoms: _661  and  _663
REMARK  258  A    between atoms: _663  and  _664
REMARK  259  A    between atoms: _663  and  _666
REMARK  260  A    between atoms: _666  and  _667
REMARK  261  A    between atoms: _667  and  _668
REMARK  262  A    between atoms: _671  and  _673
REMARK  263  A    between atoms: _673  and  _674
REMARK  264  A    between atoms: _673  and  _676
REMARK  265  A    between atoms: _676  and  _677
REMARK  266  A    between atoms: _687  and  _689
REMARK  267  A    between atoms: _689  and  _690
REMARK  268  A    between atoms: _689  and  _692
REMARK  269  A    between atoms: _692  and  _693
REMARK  270  A    between atoms: _696  and  _698
REMARK  271  A    between atoms: _698  and  _699
REMARK  272  A    between atoms: _698  and  _701
REMARK  273  A    between atoms: _701  and  _702
REMARK  274  A    between atoms: _704  and  _706
REMARK  275  A    between atoms: _706  and  _707
REMARK  276  A    between atoms: _706  and  _709
REMARK  277  A    between atoms: _709  and  _710
REMARK  278  A    between atoms: _712  and  _714
REMARK  279  A    between atoms: _714  and  _715
REMARK  280  A    between atoms: _714  and  _717
REMARK  281  A    between atoms: _717  and  _718
REMARK                            x       y       z     vdW  Elec       q    Type
REMARK                         _______ _______ _______ _____ _____    ______ ____
ROOT
ATOM      1  O   HOH     1       1.057  -3.931  36.980  0.00  0.00    +0.000 OA
ENDROOT
TORSDOF 0
REMARK  Name = ../refined-set-2016/3f5k/3f5k_pocket.pdb
REMARK  281 active torsions:
REMARK  status: ('A' for Active; 'I' for Inactive)
REMARK    1  A    between atoms: _1  and  _3
REMARK    2  A    between atoms: _3  and  _4
REMARK    3  A    between atoms: _3  and  _6
REMARK    4  A    between atoms: _9  and  _11
REMARK    5  A    between atoms: _11  and  _12
REMARK    6  A    between atoms: _11  and  _14
REMARK    7  A    between atoms: _14  and  _15
REMARK    8  A    between atoms: _18  and  _20
REMARK    9  A    between atoms: _20  and  _21
REMARK   10  A    between atoms: _20  and  _23
REMARK   11  A    between atoms: _23  and  _24
REMARK   12  A    between atoms: _26  and  _28
REMARK   13  A    between atoms: _28  and  _29
REMARK   14  A    between atoms: _32  and  _34
REMARK   15  A    between atoms: _34  and  _35
REMARK   16  A    between atoms: _34  and  _37
REMARK   17  A    between atoms: _37  and  _38
REMARK   18  A    between atoms: _38  and  _39
REMARK   19  A    between atoms: _44  and  _46
REMARK   20  A    between atoms: _46  and  _47
REMARK   21  A    between atoms: _46  and  _49
REMARK   22  A    between atoms: _49  and  _50
REMARK   23  A    between atoms: _50  and  _51
REMARK   24  A    between atoms: _51  and  _52
REMARK   25  A    between atoms: _61  and  _63
REMARK   26  A    between atoms: _63  and  _64
REMARK   27  A    between atoms: _63  and  _66
REMARK   28  A    between atoms: _66  and  _67
REMARK   29  A    between atoms: _72  and  _74
REMARK   30  A    between atoms: _74  and  _75
REMARK   31  A    between atoms: _74  and  _77
REMARK   32  A    between atoms: _77  and  _78
REMARK   33  A    between atoms: _83  and  _85
REMARK   34  A    between atoms: _85  and  _86
REMARK   35  A    between atoms: _85  and  _88
REMARK   36  A    between atoms: _88  and  _89
REMARK   37  A    between atoms: _94  and  _95
REMARK   38  A    between atoms: _97  and  _99
REMARK   39  A    between atoms: _99  and  _100
REMARK   40  A    between atoms: _99  and  _102
REMARK   41  A    between atoms: _102  and  _103
REMARK   42  A    between atoms: _108  and  _110
REMARK   43  A    between atoms: _110  and  _111
REMARK   44  A    between atoms: _110  and  _113
REMARK   45  A    between atoms: _113  and  _114
REMARK   46  A    between atoms: _114  and  _115
REMARK   47  A    between atoms: _120  and  _122
REMARK   48  A    between atoms: _122  and  _123
REMARK   49  A    between atoms: _122  and  _125
REMARK   50  A    between atoms: _125  and  _126
REMARK   51  A    between atoms: _126  and  _127
REMARK   52  A    between atoms: _127  and  _128
REMARK   53  A    between atoms: _137  and  _139
REMARK   54  A    between atoms: _139  and  _140
REMARK   55  A    between atoms: _139  and  _142
REMARK   56  A    between atoms: _142  and  _143
REMARK   57  A    between atoms: _146  and  _148
REMARK   58  A    between atoms: _148  and  _149
REMARK   59  A    between atoms: _148  and  _151
REMARK   60  A    between atoms: _151  and  _152
REMARK   61  A    between atoms: _155  and  _157
REMARK   62  A    between atoms: _157  and  _158
REMARK   63  A    between atoms: _157  and  _160
REMARK   64  A    between atoms: _160  and  _161
REMARK   65  A    between atoms: _164  and  _166
REMARK   66  A    between atoms: _166  and  _167
REMARK   67  A    between atoms: _166  and  _169
REMARK   68  A    between atoms: _169  and  _170
REMARK   69  A    between atoms: _173  and  _175
REMARK   70  A    between atoms: _175  and  _176
REMARK   71  A    between atoms: _175  and  _178
REMARK   72  A    between atoms: _178  and  _179
REMARK   73  A    between atoms: _179  and  _180
REMARK   74  A    between atoms: _185  and  _187
REMARK   75  A    between atoms: _187  and  _188
REMARK   76  A    between atoms: _187  and  _190
REMARK   77  A    between atoms: _190  and  _191
REMARK   78  A    between atoms: _194  and  _196
REMARK   79  A    between atoms: _196  and  _197
REMARK   80  A    between atoms: _196  and  _199
REMARK   81  A    between atoms: _199  and  _200
REMARK   82  A    between atoms: _205  and  _207
REMARK   83  A    between atoms: _207  and  _208
REMARK   84  A    between atoms: _207  and  _210
REMARK   85  A    between atoms: _213  and  _215
REMARK   86  A    between atoms: _215  and  _216
REMARK   87  A    between atoms: _215  and  _218
REMARK   88  A    between atoms: _218  and  _219
REMARK   89  A    between atoms: _222  and  _224
REMARK   90  A    between atoms: _224  and  _225
REMARK   91  A    between atoms: _224  and  _227
REMARK   92  A    between atoms: _227  and  _228
REMARK   93  A    between atoms: _231  and  _233
REMARK   94  A    between atoms: _233  and  _234
REMARK   95  A    between atoms: _233  and  _236
REMARK   96  A    between atoms: _236  and  _237
REMARK   97  A    between atoms: _243  and  _245
REMARK   98  A    between atoms: _245  and  _246
REMARK   99  A    between atoms: _245  and  _248
REMARK  100  A    between atoms: _248  and  _249
REMARK  101  A    between atoms: _254  and  _256
REMARK  102  A    between atoms: _256  and  _257
REMARK  103  A    between atoms: _256  and  _259
REMARK  104  A    between atoms: _259  and  _260
REMARK  105  A    between atoms: _270  and  _272
REMARK  106  A    between atoms: _272  and  _273
REMARK  107  A    between atoms: _272  and  _275
REMARK  108  A    between atoms: _275  and  _276
REMARK  109  A    between atoms: _281  and  _282
REMARK  110  A    between atoms: _284  and  _286
REMARK  111  A    between atoms: _286  and  _287
REMARK  112  A    between atoms: _286  and  _289
REMARK  113  A    between atoms: _289  and  _290
REMARK  114  A    between atoms: _295  and  _297
REMARK  115  A    between atoms: _297  and  _298
REMARK  116  A    between atoms: _297  and  _300
REMARK  117  A    between atoms: _300  and  _301
REMARK  118  A    between atoms: _306  and  _308
REMARK  119  A    between atoms: _308  and  _309
REMARK  120  A    between atoms: _308  and  _311
REMARK  121  A    between atoms: _311  and  _312
REMARK  122  A    between atoms: _312  and  _313
REMARK  123  A    between atoms: _318  and  _320
REMARK  124  A    between atoms: _320  and  _321
REMARK  125  A    between atoms: _320  and  _323
REMARK  126  A    between atoms: _323  and  _324
REMARK  127  A    between atoms: _329  and  _330
REMARK  128  A    between atoms: _332  and  _334
REMARK  129  A    between atoms: _334  and  _335
REMARK  130  A    between atoms: _334  and  _337
REMARK  131  A    between atoms: _337  and  _338
REMARK  132  A    between atoms: _341  and  _343
REMARK  133  A    between atoms: _343  and  _344
REMARK  134  A    between atoms: _347  and  _349
REMARK  135  A    between atoms: _349  and  _350
REMARK  136  A    between atoms: _349  and  _352
REMARK  137  A    between atoms: _352  and  _353
REMARK  138  A    between atoms: _355  and  _357
REMARK  139  A    between atoms: _357  and  _358
REMARK  140  A    between atoms: _357  and  _360
REMARK  141  A    between atoms: _360  and  _361
REMARK  142  A    between atoms: _361  and  _362
REMARK  143  A    between atoms: _364  and  _366
REMARK  144  A    between atoms: _366  and  _367
REMARK  145  A    between atoms: _366  and  _369
REMARK  146  A    between atoms: _369  and  _370
REMARK  147  A    between atoms: _370  and  _371
REMARK  148  A    between atoms: _376  and  _378
REMARK  149  A    between atoms: _378  and  _379
REMARK  150  A    between atoms: _378  and  _381
REMARK  151  A    between atoms: _381  and  _382
REMARK  152  A    between atoms: _384  and  _386
REMARK  153  A    between atoms: _386  and  _387
REMARK  154  A    between atoms: _386  and  _389
REMARK  155  A    between atoms: _389  and  _390
REMARK  156  A    between atoms: _395  and  _396
REMARK  157  A    between atoms: _398  and  _400
REMARK  158  A    between atoms: _400  and  _401
REMARK  159  A    between atoms: _400  and  _403
REMARK  160  A    between atoms: _403  and  _404
REMARK  161  A    between atoms: _406  and  _408
REMARK  162  A    between atoms: _408  and  _409
REMARK  163  A    between atoms: _412  and  _414
REMARK  164  A    between atoms: _414  and  _415
REMARK  165  A    between atoms: _414  and  _417
REMARK  166  A    between atoms: _417  and  _418
REMARK  167  A    between atoms: _428  and  _430
REMARK  168  A    between atoms: _430  and  _431
REMARK  169  A    between atoms: _430  and  _433
REMARK  170  A    between atoms: _433  and  _434
REMARK  171  A    between atoms: _434  and  _435
REMARK  172  A    between atoms: _440  and  _442
REMARK  173  A    between atoms: _442  and  _443
REMARK  174  A    between atoms: _442  and  _445
REMARK  175  A    between atoms: _448  and  _450
REMARK  176  A    between atoms: _450  and  _451
REMARK  177  A    between atoms: _450  and  _453
REMARK  178  A    between atoms: _453  and  _454
REMARK  179  A    between atoms: _457  and  _459
REMARK  180  A    between atoms: _459  and  _460
REMARK  181  A    between atoms: _459  and  _462
REMARK  182  A    between atoms: _462  and  _463
REMARK  183  A    between atoms: _468  and  _469
REMARK  184  A    between atoms: _471  and  _473
REMARK  185  A    between atoms: _473  and  _474
REMARK  186  A    between atoms: _473  and  _476
REMARK  187  A    between atoms: _479  and  _481
REMARK  188  A    between atoms: _481  and  _482
REMARK  189  A    between atoms: _481  and  _484
REMARK  190  A    between atoms: _484  and  _485
REMARK  191  A    between atoms: _491  and  _493
REMARK  192  A    between atoms: _493  and  _494
REMARK  193  A    between atoms: _493  and  _496
REMARK  194  A    between atoms: _496  and  _497
REMARK  195  A    between atoms: _497  and  _498
REMARK  196  A    between atoms: _503  and  _505
REMARK  197  A    between atoms: _505  and  _506
REMARK  198  A    between atoms: _505  and  _508
REMARK  199  A    between atoms: _508  and  _509
REMARK  200  A    between atoms: _511  and  _513
REMARK  201  A    between atoms: _513  and  _514
REMARK  202  A    between atoms: _513  and  _516
REMARK  203  A    between atoms: _516  and  _517
REMARK  204  A    between atoms: _522  and  _524
REMARK  205  A    between atoms: _524  and  _525
REMARK  206  A    between atoms: _524  and  _527
REMARK  207  A    between atoms: _527  and  _528
REMARK  208  A    between atoms: _538  and  _540
REMARK  209  A    between atoms: _540  and  _541
REMARK  210  A    between atoms: _540  and  _543
REMARK  211  A    between atoms: _543  and  _544
REMARK  212  A    between atoms: _547  and  _549
REMARK  213  A    between atoms: _549  and  _550
REMARK  214  A    between atoms: _549  and  _552
REMARK  215  A    between atoms: _552  and  _553
REMARK  216  A    between atoms: _558  and  _559
REMARK  217  A    between atoms: _561  and  _563
REMARK  218  A    between atoms: _563  and  _564
REMARK  219  A    between atoms: _563  and  _566
REMARK  220  A    between atoms: _566  and  _567
REMARK  221  A    between atoms: _570  and  _572
REMARK  222  A    between atoms: _572  and  _573
REMARK  223  A    between atoms: _572  and  _575
REMARK  224  A    between atoms: _575  and  _576
REMARK  225  A    between atoms: _576  and  _577
REMARK  226  A    between atoms: _580  and  _582
REMARK  227  A    between atoms: _582  and  _583
REMARK  228  A    between atoms: _582  and  _585
REMARK  229  A    between atoms: _585  and  _586
REMARK  230  A    between atoms: _591  and  _593
REMARK  231  A    between atoms: _593  and  _594
REMARK  232  A    between atoms: _596  and  _598
REMARK  233  A    between atoms: _598  and  _599
REMARK  234  A    between atoms: _598  and  _601
REMARK  235  A    between atoms: _601  and  _602
REMARK  236  A    between atoms: _602  and  _603
REMARK  237  A    between atoms: _605  and  _607
REMARK  238  A    between atoms: _607  and  _608
REMARK  239  A    between atoms: _607  and  _610
REMARK  240  A    between atoms: _610  and  _611
REMARK  241  A    between atoms: _614  and  _616
REMARK  242  A    between atoms: _616  and  _617
REMARK  243  A    between atoms: _616  and  _619
REMARK  244  A    between atoms: _619  and  _620
REMARK  245  A    between atoms: _630  and  _632
REMARK  246  A    between atoms: _632  and  _633
REMARK  247  A    between atoms: _632  and  _635
REMARK  248  A    between atoms: _635  and  _636
REMARK  249  A    between atoms: _638  and  _640
REMARK  250  A    between atoms: _640  and  _641
REMARK  251  A    between atoms: _640  and  _643
REMARK  252  A    between atoms: _643  and  _644
REMARK  253  A    between atoms: _649  and  _651
REMARK  254  A    between atoms: _651  and  _652
REMARK  255  A    between atoms: _651  and  _654
REMARK  256  A    between atoms: _654  and  _655
REMARK  257  A    between atoms: _661  and  _663
REMARK  258  A    between atoms: _663  and  _664
REMARK  259  A    between atoms: _663  and  _666
REMARK  260  A    between atoms: _666  and  _667
REMARK  261  A    between atoms: _667  and  _668
REMARK  262  A    between atoms: _671  and  _673
REMARK  263  A    between atoms: _673  and  _674
REMARK  264  A    between atoms: _673  and  _676
REMARK  265  A    between atoms: _676  and  _677
REMARK  266  A    between atoms: _687  and  _689
REMARK  267  A    between atoms: _689  and  _690
REMARK  268  A    between atoms: _689  and  _692
REMARK  269  A    between atoms: _692  and  _693
REMARK  270  A    between atoms: _696  and  _698
REMARK  271  A    between atoms: _698  and  _699
REMARK  272  A    between atoms: _698  and  _701
REMARK  273  A    between atoms: _701  and  _702
REMARK  274  A    between atoms: _704  and  _706
REMARK  275  A    between atoms: _706  and  _707
REMARK  276  A    between atoms: _706  and  _709
REMARK  277  A    between atoms: _709  and  _710
REMARK  278  A    between atoms: _712  and  _714
REMARK  279  A    between atoms: _714  and  _715
REMARK  280  A    between atoms: _714  and  _717
REMARK  281  A    between atoms: _717  and  _718
REMARK                            x       y       z     vdW  Elec       q    Type
REMARK                         _______ _______ _______ _____ _____    ______ ____
ROOT
ATOM      1  O   HOH     1      -1.435  -9.029  51.259  0.00  0.00    +0.000 OA
ENDROOT
TORSDOF 0
REMARK  Name = ../refined-set-2016/3f5k/3f5k_pocket.pdb
REMARK  281 active torsions:
REMARK  status: ('A' for Active; 'I' for Inactive)
REMARK    1  A    between atoms: _1  and  _3
REMARK    2  A    between atoms: _3  and  _4
REMARK    3  A    between atoms: _3  and  _6
REMARK    4  A    between atoms: _9  and  _11
REMARK    5  A    between atoms: _11  and  _12
REMARK    6  A    between atoms: _11  and  _14
REMARK    7  A    between atoms: _14  and  _15
REMARK    8  A    between atoms: _18  and  _20
REMARK    9  A    between atoms: _20  and  _21
REMARK   10  A    between atoms: _20  and  _23
REMARK   11  A    between atoms: _23  and  _24
REMARK   12  A    between atoms: _26  and  _28
REMARK   13  A    between atoms: _28  and  _29
REMARK   14  A    between atoms: _32  and  _34
REMARK   15  A    between atoms: _34  and  _35
REMARK   16  A    between atoms: _34  and  _37
REMARK   17  A    between atoms: _37  and  _38
REMARK   18  A    between atoms: _38  and  _39
REMARK   19  A    between atoms: _44  and  _46
REMARK   20  A    between atoms: _46  and  _47
REMARK   21  A    between atoms: _46  and  _49
REMARK   22  A    between atoms: _49  and  _50
REMARK   23  A    between atoms: _50  and  _51
REMARK   24  A    between atoms: _51  and  _52
REMARK   25  A    between atoms: _61  and  _63
REMARK   26  A    between atoms: _63  and  _64
REMARK   27  A    between atoms: _63  and  _66
REMARK   28  A    between atoms: _66  and  _67
REMARK   29  A    between atoms: _72  and  _74
REMARK   30  A    between atoms: _74  and  _75
REMARK   31  A    between atoms: _74  and  _77
REMARK   32  A    between atoms: _77  and  _78
REMARK   33  A    between atoms: _83  and  _85
REMARK   34  A    between atoms: _85  and  _86
REMARK   35  A    between atoms: _85  and  _88
REMARK   36  A    between atoms: _88  and  _89
REMARK   37  A    between atoms: _94  and  _95
REMARK   38  A    between atoms: _97  and  _99
REMARK   39  A    between atoms: _99  and  _100
REMARK   40  A    between atoms: _99  and  _102
REMARK   41  A    between atoms: _102  and  _103
REMARK   42  A    between atoms: _108  and  _110
REMARK   43  A    between atoms: _110  and  _111
REMARK   44  A    between atoms: _110  and  _113
REMARK   45  A    between atoms: _113  and  _114
REMARK   46  A    between atoms: _114  and  _115
REMARK   47  A    between atoms: _120  and  _122
REMARK   48  A    between atoms: _122  and  _123
REMARK   49  A    between atoms: _122  and  _125
REMARK   50  A    between atoms: _125  and  _126
REMARK   51  A    between atoms: _126  and  _127
REMARK   52  A    between atoms: _127  and  _128
REMARK   53  A    between atoms: _137  and  _139
REMARK   54  A    between atoms: _139  and  _140
REMARK   55  A    between atoms: _139  and  _142
REMARK   56  A    between atoms: _142  and  _143
REMARK   57  A    between atoms: _146  and  _148
REMARK   58  A    between atoms: _148  and  _149
REMARK   59  A    between atoms: _148  and  _151
REMARK   60  A    between atoms: _151  and  _152
REMARK   61  A    between atoms: _155  and  _157
REMARK   62  A    between atoms: _157  and  _158
REMARK   63  A    between atoms: _157  and  _160
REMARK   64  A    between atoms: _160  and  _161
REMARK   65  A    between atoms: _164  and  _166
REMARK   66  A    between atoms: _166  and  _167
REMARK   67  A    between atoms: _166  and  _169
REMARK   68  A    between atoms: _169  and  _170
REMARK   69  A    between atoms: _173  and  _175
REMARK   70  A    between atoms: _175  and  _176
REMARK   71  A    between atoms: _175  and  _178
REMARK   72  A    between atoms: _178  and  _179
REMARK   73  A    between atoms: _179  and  _180
REMARK   74  A    between atoms: _185  and  _187
REMARK   75  A    between atoms: _187  and  _188
REMARK   76  A    between atoms: _187  and  _190
REMARK   77  A    between atoms: _190  and  _191
REMARK   78  A    between atoms: _194  and  _196
REMARK   79  A    between atoms: _196  and  _197
REMARK   80  A    between atoms: _196  and  _199
REMARK   81  A    between atoms: _199  and  _200
REMARK   82  A    between atoms: _205  and  _207
REMARK   83  A    between atoms: _207  and  _208
REMARK   84  A    between atoms: _207  and  _210
REMARK   85  A    between atoms: _213  and  _215
REMARK   86  A    between atoms: _215  and  _216
REMARK   87  A    between atoms: _215  and  _218
REMARK   88  A    between atoms: _218  and  _219
REMARK   89  A    between atoms: _222  and  _224
REMARK   90  A    between atoms: _224  and  _225
REMARK   91  A    between atoms: _224  and  _227
REMARK   92  A    between atoms: _227  and  _228
REMARK   93  A    between atoms: _231  and  _233
REMARK   94  A    between atoms: _233  and  _234
REMARK   95  A    between atoms: _233  and  _236
REMARK   96  A    between atoms: _236  and  _237
REMARK   97  A    between atoms: _243  and  _245
REMARK   98  A    between atoms: _245  and  _246
REMARK   99  A    between atoms: _245  and  _248
REMARK  100  A    between atoms: _248  and  _249
REMARK  101  A    between atoms: _254  and  _256
REMARK  102  A    between atoms: _256  and  _257
REMARK  103  A    between atoms: _256  and  _259
REMARK  104  A    between atoms: _259  and  _260
REMARK  105  A    between atoms: _270  and  _272
REMARK  106  A    between atoms: _272  and  _273
REMARK  107  A    between atoms: _272  and  _275
REMARK  108  A    between atoms: _275  and  _276
REMARK  109  A    between atoms: _281  and  _282
REMARK  110  A    between atoms: _284  and  _286
REMARK  111  A    between atoms: _286  and  _287
REMARK  112  A    between atoms: _286  and  _289
REMARK  113  A    between atoms: _289  and  _290
REMARK  114  A    between atoms: _295  and  _297
REMARK  115  A    between atoms: _297  and  _298
REMARK  116  A    between atoms: _297  and  _300
REMARK  117  A    between atoms: _300  and  _301
REMARK  118  A    between atoms: _306  and  _308
REMARK  119  A    between atoms: _308  and  _309
REMARK  120  A    between atoms: _308  and  _311
REMARK  121  A    between atoms: _311  and  _312
REMARK  122  A    between atoms: _312  and  _313
REMARK  123  A    between atoms: _318  and  _320
REMARK  124  A    between atoms: _320  and  _321
REMARK  125  A    between atoms: _320  and  _323
REMARK  126  A    between atoms: _323  and  _324
REMARK  127  A    between atoms: _329  and  _330
REMARK  128  A    between atoms: _332  and  _334
REMARK  129  A    between atoms: _334  and  _335
REMARK  130  A    between atoms: _334  and  _337
REMARK  131  A    between atoms: _337  and  _338
REMARK  132  A    between atoms: _341  and  _343
REMARK  133  A    between atoms: _343  and  _344
REMARK  134  A    between atoms: _347  and  _349
REMARK  135  A    between atoms: _349  and  _350
REMARK  136  A    between atoms: _349  and  _352
REMARK  137  A    between atoms: _352  and  _353
REMARK  138  A    between atoms: _355  and  _357
REMARK  139  A    between atoms: _357  and  _358
REMARK  140  A    between atoms: _357  and  _360
REMARK  141  A    between atoms: _360  and  _361
REMARK  142  A    between atoms: _361  and  _362
REMARK  143  A    between atoms: _364  and  _366
REMARK  144  A    between atoms: _366  and  _367
REMARK  145  A    between atoms: _366  and  _369
REMARK  146  A    between atoms: _369  and  _370
REMARK  147  A    between atoms: _370  and  _371
REMARK  148  A    between atoms: _376  and  _378
REMARK  149  A    between atoms: _378  and  _379
REMARK  150  A    between atoms: _378  and  _381
REMARK  151  A    between atoms: _381  and  _382
REMARK  152  A    between atoms: _384  and  _386
REMARK  153  A    between atoms: _386  and  _387
REMARK  154  A    between atoms: _386  and  _389
REMARK  155  A    between atoms: _389  and  _390
REMARK  156  A    between atoms: _395  and  _396
REMARK  157  A    between atoms: _398  and  _400
REMARK  158  A    between atoms: _400  and  _401
REMARK  159  A    between atoms: _400  and  _403
REMARK  160  A    between atoms: _403  and  _404
REMARK  161  A    between atoms: _406  and  _408
REMARK  162  A    between atoms: _408  and  _409
REMARK  163  A    between atoms: _412  and  _414
REMARK  164  A    between atoms: _414  and  _415
REMARK  165  A    between atoms: _414  and  _417
REMARK  166  A    between atoms: _417  and  _418
REMARK  167  A    between atoms: _428  and  _430
REMARK  168  A    between atoms: _430  and  _431
REMARK  169  A    between atoms: _430  and  _433
REMARK  170  A    between atoms: _433  and  _434
REMARK  171  A    between atoms: _434  and  _435
REMARK  172  A    between atoms: _440  and  _442
REMARK  173  A    between atoms: _442  and  _443
REMARK  174  A    between atoms: _442  and  _445
REMARK  175  A    between atoms: _448  and  _450
REMARK  176  A    between atoms: _450  and  _451
REMARK  177  A    between atoms: _450  and  _453
REMARK  178  A    between atoms: _453  and  _454
REMARK  179  A    between atoms: _457  and  _459
REMARK  180  A    between atoms: _459  and  _460
REMARK  181  A    between atoms: _459  and  _462
REMARK  182  A    between atoms: _462  and  _463
REMARK  183  A    between atoms: _468  and  _469
REMARK  184  A    between atoms: _471  and  _473
REMARK  185  A    between atoms: _473  and  _474
REMARK  186  A    between atoms: _473  and  _476
REMARK  187  A    between atoms: _479  and  _481
REMARK  188  A    between atoms: _481  and  _482
REMARK  189  A    between atoms: _481  and  _484
REMARK  190  A    between atoms: _484  and  _485
REMARK  191  A    between atoms: _491  and  _493
REMARK  192  A    between atoms: _493  and  _494
REMARK  193  A    between atoms: _493  and  _496
REMARK  194  A    between atoms: _496  and  _497
REMARK  195  A    between atoms: _497  and  _498
REMARK  196  A    between atoms: _503  and  _505
REMARK  197  A    between atoms: _505  and  _506
REMARK  198  A    between atoms: _505  and  _508
REMARK  199  A    between atoms: _508  and  _509
REMARK  200  A    between atoms: _511  and  _513
REMARK  201  A    between atoms: _513  and  _514
REMARK  202  A    between atoms: _513  and  _516
REMARK  203  A    between atoms: _516  and  _517
REMARK  204  A    between atoms: _522  and  _524
REMARK  205  A    between atoms: _524  and  _525
REMARK  206  A    between atoms: _524  and  _527
REMARK  207  A    between atoms: _527  and  _528
REMARK  208  A    between atoms: _538  and  _540
REMARK  209  A    between atoms: _540  and  _541
REMARK  210  A    between atoms: _540  and  _543
REMARK  211  A    between atoms: _543  and  _544
REMARK  212  A    between atoms: _547  and  _549
REMARK  213  A    between atoms: _549  and  _550
REMARK  214  A    between atoms: _549  and  _552
REMARK  215  A    between atoms: _552  and  _553
REMARK  216  A    between atoms: _558  and  _559
REMARK  217  A    between atoms: _561  and  _563
REMARK  218  A    between atoms: _563  and  _564
REMARK  219  A    between atoms: _563  and  _566
REMARK  220  A    between atoms: _566  and  _567
REMARK  221  A    between atoms: _570  and  _572
REMARK  222  A    between atoms: _572  and  _573
REMARK  223  A    between atoms: _572  and  _575
REMARK  224  A    between atoms: _575  and  _576
REMARK  225  A    between atoms: _576  and  _577
REMARK  226  A    between atoms: _580  and  _582
REMARK  227  A    between atoms: _582  and  _583
REMARK  228  A    between atoms: _582  and  _585
REMARK  229  A    between atoms: _585  and  _586
REMARK  230  A    between atoms: _591  and  _593
REMARK  231  A    between atoms: _593  and  _594
REMARK  232  A    between atoms: _596  and  _598
REMARK  233  A    between atoms: _598  and  _599
REMARK  234  A    between atoms: _598  and  _601
REMARK  235  A    between atoms: _601  and  _602
REMARK  236  A    between atoms: _602  and  _603
REMARK  237  A    between atoms: _605  and  _607
REMARK  238  A    between atoms: _607  and  _608
REMARK  239  A    between atoms: _607  and  _610
REMARK  240  A    between atoms: _610  and  _611
REMARK  241  A    between atoms: _614  and  _616
REMARK  242  A    between atoms: _616  and  _617
REMARK  243  A    between atoms: _616  and  _619
REMARK  244  A    between atoms: _619  and  _620
REMARK  245  A    between atoms: _630  and  _632
REMARK  246  A    between atoms: _632  and  _633
REMARK  247  A    between atoms: _632  and  _635
REMARK  248  A    between atoms: _635  and  _636
REMARK  249  A    between atoms: _638  and  _640
REMARK  250  A    between atoms: _640  and  _641
REMARK  251  A    between atoms: _640  and  _643
REMARK  252  A    between atoms: _643  and  _644
REMARK  253  A    between atoms: _649  and  _651
REMARK  254  A    between atoms: _651  and  _652
REMARK  255  A    between atoms: _651  and  _654
REMARK  256  A    between atoms: _654  and  _655
REMARK  257  A    between atoms: _661  and  _663
REMARK  258  A    between atoms: _663  and  _664
REMARK  259  A    between atoms: _663  and  _666
REMARK  260  A    between atoms: _666  and  _667
REMARK  261  A    between atoms: _667  and  _668
REMARK  262  A    between atoms: _671  and  _673
REMARK  263  A    between atoms: _673  and  _674
REMARK  264  A    between atoms: _673  and  _676
REMARK  265  A    between atoms: _676  and  _677
REMARK  266  A    between atoms: _687  and  _689
REMARK  267  A    between atoms: _689  and  _690
REMARK  268  A    between atoms: _689  and  _692
REMARK  269  A    between atoms: _692  and  _693
REMARK  270  A    between atoms: _696  and  _698
REMARK  271  A    between atoms: _698  and  _699
REMARK  272  A    between atoms: _698  and  _701
REMARK  273  A    between atoms: _701  and  _702
REMARK  274  A    between atoms: _704  and  _706
REMARK  275  A    between atoms: _706  and  _707
REMARK  276  A    between atoms: _706  and  _709
REMARK  277  A    between atoms: _709  and  _710
REMARK  278  A    between atoms: _712  and  _714
REMARK  279  A    between atoms: _714  and  _715
REMARK  280  A    between atoms: _714  and  _717
REMARK  281  A    between atoms: _717  and  _718
REMARK                            x       y       z     vdW  Elec       q    Type
REMARK                         _______ _______ _______ _____ _____    ______ ____
ROOT
ATOM      1  O   HOH     1      -0.569   0.071  36.978  0.00  0.00    +0.000 OA
ENDROOT
TORSDOF 0
REMARK  Name = ../refined-set-2016/3f5k/3f5k_pocket.pdb
REMARK  281 active torsions:
REMARK  status: ('A' for Active; 'I' for Inactive)
REMARK    1  A    between atoms: _1  and  _3
REMARK    2  A    between atoms: _3  and  _4
REMARK    3  A    between atoms: _3  and  _6
REMARK    4  A    between atoms: _9  and  _11
REMARK    5  A    between atoms: _11  and  _12
REMARK    6  A    between atoms: _11  and  _14
REMARK    7  A    between atoms: _14  and  _15
REMARK    8  A    between atoms: _18  and  _20
REMARK    9  A    between atoms: _20  and  _21
REMARK   10  A    between atoms: _20  and  _23
REMARK   11  A    between atoms: _23  and  _24
REMARK   12  A    between atoms: _26  and  _28
REMARK   13  A    between atoms: _28  and  _29
REMARK   14  A    between atoms: _32  and  _34
REMARK   15  A    between atoms: _34  and  _35
REMARK   16  A    between atoms: _34  and  _37
REMARK   17  A    between atoms: _37  and  _38
REMARK   18  A    between atoms: _38  and  _39
REMARK   19  A    between atoms: _44  and  _46
REMARK   20  A    between atoms: _46  and  _47
REMARK   21  A    between atoms: _46  and  _49
REMARK   22  A    between atoms: _49  and  _50
REMARK   23  A    between atoms: _50  and  _51
REMARK   24  A    between atoms: _51  and  _52
REMARK   25  A    between atoms: _61  and  _63
REMARK   26  A    between atoms: _63  and  _64
REMARK   27  A    between atoms: _63  and  _66
REMARK   28  A    between atoms: _66  and  _67
REMARK   29  A    between atoms: _72  and  _74
REMARK   30  A    between atoms: _74  and  _75
REMARK   31  A    between atoms: _74  and  _77
REMARK   32  A    between atoms: _77  and  _78
REMARK   33  A    between atoms: _83  and  _85
REMARK   34  A    between atoms: _85  and  _86
REMARK   35  A    between atoms: _85  and  _88
REMARK   36  A    between atoms: _88  and  _89
REMARK   37  A    between atoms: _94  and  _95
REMARK   38  A    between atoms: _97  and  _99
REMARK   39  A    between atoms: _99  and  _100
REMARK   40  A    between atoms: _99  and  _102
REMARK   41  A    between atoms: _102  and  _103
REMARK   42  A    between atoms: _108  and  _110
REMARK   43  A    between atoms: _110  and  _111
REMARK   44  A    between atoms: _110  and  _113
REMARK   45  A    between atoms: _113  and  _114
REMARK   46  A    between atoms: _114  and  _115
REMARK   47  A    between atoms: _120  and  _122
REMARK   48  A    between atoms: _122  and  _123
REMARK   49  A    between atoms: _122  and  _125
REMARK   50  A    between atoms: _125  and  _126
REMARK   51  A    between atoms: _126  and  _127
REMARK   52  A    between atoms: _127  and  _128
REMARK   53  A    between atoms: _137  and  _139
REMARK   54  A    between atoms: _139  and  _140
REMARK   55  A    between atoms: _139  and  _142
REMARK   56  A    between atoms: _142  and  _143
REMARK   57  A    between atoms: _146  and  _148
REMARK   58  A    between atoms: _148  and  _149
REMARK   59  A    between atoms: _148  and  _151
REMARK   60  A    between atoms: _151  and  _152
REMARK   61  A    between atoms: _155  and  _157
REMARK   62  A    between atoms: _157  and  _158
REMARK   63  A    between atoms: _157  and  _160
REMARK   64  A    between atoms: _160  and  _161
REMARK   65  A    between atoms: _164  and  _166
REMARK   66  A    between atoms: _166  and  _167
REMARK   67  A    between atoms: _166  and  _169
REMARK   68  A    between atoms: _169  and  _170
REMARK   69  A    between atoms: _173  and  _175
REMARK   70  A    between atoms: _175  and  _176
REMARK   71  A    between atoms: _175  and  _178
REMARK   72  A    between atoms: _178  and  _179
REMARK   73  A    between atoms: _179  and  _180
REMARK   74  A    between atoms: _185  and  _187
REMARK   75  A    between atoms: _187  and  _188
REMARK   76  A    between atoms: _187  and  _190
REMARK   77  A    between atoms: _190  and  _191
REMARK   78  A    between atoms: _194  and  _196
REMARK   79  A    between atoms: _196  and  _197
REMARK   80  A    between atoms: _196  and  _199
REMARK   81  A    between atoms: _199  and  _200
REMARK   82  A    between atoms: _205  and  _207
REMARK   83  A    between atoms: _207  and  _208
REMARK   84  A    between atoms: _207  and  _210
REMARK   85  A    between atoms: _213  and  _215
REMARK   86  A    between atoms: _215  and  _216
REMARK   87  A    between atoms: _215  and  _218
REMARK   88  A    between atoms: _218  and  _219
REMARK   89  A    between atoms: _222  and  _224
REMARK   90  A    between atoms: _224  and  _225
REMARK   91  A    between atoms: _224  and  _227
REMARK   92  A    between atoms: _227  and  _228
REMARK   93  A    between atoms: _231  and  _233
REMARK   94  A    between atoms: _233  and  _234
REMARK   95  A    between atoms: _233  and  _236
REMARK   96  A    between atoms: _236  and  _237
REMARK   97  A    between atoms: _243  and  _245
REMARK   98  A    between atoms: _245  and  _246
REMARK   99  A    between atoms: _245  and  _248
REMARK  100  A    between atoms: _248  and  _249
REMARK  101  A    between atoms: _254  and  _256
REMARK  102  A    between atoms: _256  and  _257
REMARK  103  A    between atoms: _256  and  _259
REMARK  104  A    between atoms: _259  and  _260
REMARK  105  A    between atoms: _270  and  _272
REMARK  106  A    between atoms: _272  and  _273
REMARK  107  A    between atoms: _272  and  _275
REMARK  108  A    between atoms: _275  and  _276
REMARK  109  A    between atoms: _281  and  _282
REMARK  110  A    between atoms: _284  and  _286
REMARK  111  A    between atoms: _286  and  _287
REMARK  112  A    between atoms: _286  and  _289
REMARK  113  A    between atoms: _289  and  _290
REMARK  114  A    between atoms: _295  and  _297
REMARK  115  A    between atoms: _297  and  _298
REMARK  116  A    between atoms: _297  and  _300
REMARK  117  A    between atoms: _300  and  _301
REMARK  118  A    between atoms: _306  and  _308
REMARK  119  A    between atoms: _308  and  _309
REMARK  120  A    between atoms: _308  and  _311
REMARK  121  A    between atoms: _311  and  _312
REMARK  122  A    between atoms: _312  and  _313
REMARK  123  A    between atoms: _318  and  _320
REMARK  124  A    between atoms: _320  and  _321
REMARK  125  A    between atoms: _320  and  _323
REMARK  126  A    between atoms: _323  and  _324
REMARK  127  A    between atoms: _329  and  _330
REMARK  128  A    between atoms: _332  and  _334
REMARK  129  A    between atoms: _334  and  _335
REMARK  130  A    between atoms: _334  and  _337
REMARK  131  A    between atoms: _337  and  _338
REMARK  132  A    between atoms: _341  and  _343
REMARK  133  A    between atoms: _343  and  _344
REMARK  134  A    between atoms: _347  and  _349
REMARK  135  A    between atoms: _349  and  _350
REMARK  136  A    between atoms: _349  and  _352
REMARK  137  A    between atoms: _352  and  _353
REMARK  138  A    between atoms: _355  and  _357
REMARK  139  A    between atoms: _357  and  _358
REMARK  140  A    between atoms: _357  and  _360
REMARK  141  A    between atoms: _360  and  _361
REMARK  142  A    between atoms: _361  and  _362
REMARK  143  A    between atoms: _364  and  _366
REMARK  144  A    between atoms: _366  and  _367
REMARK  145  A    between atoms: _366  and  _369
REMARK  146  A    between atoms: _369  and  _370
REMARK  147  A    between atoms: _370  and  _371
REMARK  148  A    between atoms: _376  and  _378
REMARK  149  A    between atoms: _378  and  _379
REMARK  150  A    between atoms: _378  and  _381
REMARK  151  A    between atoms: _381  and  _382
REMARK  152  A    between atoms: _384  and  _386
REMARK  153  A    between atoms: _386  and  _387
REMARK  154  A    between atoms: _386  and  _389
REMARK  155  A    between atoms: _389  and  _390
REMARK  156  A    between atoms: _395  and  _396
REMARK  157  A    between atoms: _398  and  _400
REMARK  158  A    between atoms: _400  and  _401
REMARK  159  A    between atoms: _400  and  _403
REMARK  160  A    between atoms: _403  and  _404
REMARK  161  A    between atoms: _406  and  _408
REMARK  162  A    between atoms: _408  and  _409
REMARK  163  A    between atoms: _412  and  _414
REMARK  164  A    between atoms: _414  and  _415
REMARK  165  A    between atoms: _414  and  _417
REMARK  166  A    between atoms: _417  and  _418
REMARK  167  A    between atoms: _428  and  _430
REMARK  168  A    between atoms: _430  and  _431
REMARK  169  A    between atoms: _430  and  _433
REMARK  170  A    between atoms: _433  and  _434
REMARK  171  A    between atoms: _434  and  _435
REMARK  172  A    between atoms: _440  and  _442
REMARK  173  A    between atoms: _442  and  _443
REMARK  174  A    between atoms: _442  and  _445
REMARK  175  A    between atoms: _448  and  _450
REMARK  176  A    between atoms: _450  and  _451
REMARK  177  A    between atoms: _450  and  _453
REMARK  178  A    between atoms: _453  and  _454
REMARK  179  A    between atoms: _457  and  _459
REMARK  180  A    between atoms: _459  and  _460
REMARK  181  A    between atoms: _459  and  _462
REMARK  182  A    between atoms: _462  and  _463
REMARK  183  A    between atoms: _468  and  _469
REMARK  184  A    between atoms: _471  and  _473
REMARK  185  A    between atoms: _473  and  _474
REMARK  186  A    between atoms: _473  and  _476
REMARK  187  A    between atoms: _479  and  _481
REMARK  188  A    between atoms: _481  and  _482
REMARK  189  A    between atoms: _481  and  _484
REMARK  190  A    between atoms: _484  and  _485
REMARK  191  A    between atoms: _491  and  _493
REMARK  192  A    between atoms: _493  and  _494
REMARK  193  A    between atoms: _493  and  _496
REMARK  194  A    between atoms: _496  and  _497
REMARK  195  A    between atoms: _497  and  _498
REMARK  196  A    between atoms: _503  and  _505
REMARK  197  A    between atoms: _505  and  _506
REMARK  198  A    between atoms: _505  and  _508
REMARK  199  A    between atoms: _508  and  _509
REMARK  200  A    between atoms: _511  and  _513
REMARK  201  A    between atoms: _513  and  _514
REMARK  202  A    between atoms: _513  and  _516
REMARK  203  A    between atoms: _516  and  _517
REMARK  204  A    between atoms: _522  and  _524
REMARK  205  A    between atoms: _524  and  _525
REMARK  206  A    between atoms: _524  and  _527
REMARK  207  A    between atoms: _527  and  _528
REMARK  208  A    between atoms: _538  and  _540
REMARK  209  A    between atoms: _540  and  _541
REMARK  210  A    between atoms: _540  and  _543
REMARK  211  A    between atoms: _543  and  _544
REMARK  212  A    between atoms: _547  and  _549
REMARK  213  A    between atoms: _549  and  _550
REMARK  214  A    between atoms: _549  and  _552
REMARK  215  A    between atoms: _552  and  _553
REMARK  216  A    between atoms: _558  and  _559
REMARK  217  A    between atoms: _561  and  _563
REMARK  218  A    between atoms: _563  and  _564
REMARK  219  A    between atoms: _563  and  _566
REMARK  220  A    between atoms: _566  and  _567
REMARK  221  A    between atoms: _570  and  _572
REMARK  222  A    between atoms: _572  and  _573
REMARK  223  A    between atoms: _572  and  _575
REMARK  224  A    between atoms: _575  and  _576
REMARK  225  A    between atoms: _576  and  _577
REMARK  226  A    between atoms: _580  and  _582
REMARK  227  A    between atoms: _582  and  _583
REMARK  228  A    between atoms: _582  and  _585
REMARK  229  A    between atoms: _585  and  _586
REMARK  230  A    between atoms: _591  and  _593
REMARK  231  A    between atoms: _593  and  _594
REMARK  232  A    between atoms: _596  and  _598
REMARK  233  A    between atoms: _598  and  _599
REMARK  234  A    between atoms: _598  and  _601
REMARK  235  A    between atoms: _601  and  _602
REMARK  236  A    between atoms: _602  and  _603
REMARK  237  A    between atoms: _605  and  _607
REMARK  238  A    between atoms: _607  and  _608
REMARK  239  A    between atoms: _607  and  _610
REMARK  240  A    between atoms: _610  and  _611
REMARK  241  A    between atoms: _614  and  _616
REMARK  242  A    between atoms: _616  and  _617
REMARK  243  A    between atoms: _616  and  _619
REMARK  244  A    between atoms: _619  and  _620
REMARK  245  A    between atoms: _630  and  _632
REMARK  246  A    between atoms: _632  and  _633
REMARK  247  A    between atoms: _632  and  _635
REMARK  248  A    between atoms: _635  and  _636
REMARK  249  A    between atoms: _638  and  _640
REMARK  250  A    between atoms: _640  and  _641
REMARK  251  A    between atoms: _640  and  _643
REMARK  252  A    between atoms: _643  and  _644
REMARK  253  A    between atoms: _649  and  _651
REMARK  254  A    between atoms: _651  and  _652
REMARK  255  A    between atoms: _651  and  _654
REMARK  256  A    between atoms: _654  and  _655
REMARK  257  A    between atoms: _661  and  _663
REMARK  258  A    between atoms: _663  and  _664
REMARK  259  A    between atoms: _663  and  _666
REMARK  260  A    between atoms: _666  and  _667
REMARK  261  A    between atoms: _667  and  _668
REMARK  262  A    between atoms: _671  and  _673
REMARK  263  A    between atoms: _673  and  _674
REMARK  264  A    between atoms: _673  and  _676
REMARK  265  A    between atoms: _676  and  _677
REMARK  266  A    between atoms: _687  and  _689
REMARK  267  A    between atoms: _689  and  _690
REMARK  268  A    between atoms: _689  and  _692
REMARK  269  A    between atoms: _692  and  _693
REMARK  270  A    between atoms: _696  and  _698
REMARK  271  A    between atoms: _698  and  _699
REMARK  272  A    between atoms: _698  and  _701
REMARK  273  A    between atoms: _701  and  _702
REMARK  274  A    between atoms: _704  and  _706
REMARK  275  A    between atoms: _706  and  _707
REMARK  276  A    between atoms: _706  and  _709
REMARK  277  A    between atoms: _709  and  _710
REMARK  278  A    between atoms: _712  and  _714
REMARK  279  A    between atoms: _714  and  _715
REMARK  280  A    between atoms: _714  and  _717
REMARK  281  A    between atoms: _717  and  _718
REMARK                            x       y       z     vdW  Elec       q    Type
REMARK                         _______ _______ _______ _____ _____    ______ ____
ROOT
ATOM      1  O   HOH     1       2.288  -4.427  57.551  0.00  0.00    +0.000 OA
ENDROOT
TORSDOF 0
REMARK  Name = ../refined-set-2016/3f5k/3f5k_pocket.pdb
REMARK  281 active torsions:
REMARK  status: ('A' for Active; 'I' for Inactive)
REMARK    1  A    between atoms: _1  and  _3
REMARK    2  A    between atoms: _3  and  _4
REMARK    3  A    between atoms: _3  and  _6
REMARK    4  A    between atoms: _9  and  _11
REMARK    5  A    between atoms: _11  and  _12
REMARK    6  A    between atoms: _11  and  _14
REMARK    7  A    between atoms: _14  and  _15
REMARK    8  A    between atoms: _18  and  _20
REMARK    9  A    between atoms: _20  and  _21
REMARK   10  A    between atoms: _20  and  _23
REMARK   11  A    between atoms: _23  and  _24
REMARK   12  A    between atoms: _26  and  _28
REMARK   13  A    between atoms: _28  and  _29
REMARK   14  A    between atoms: _32  and  _34
REMARK   15  A    between atoms: _34  and  _35
REMARK   16  A    between atoms: _34  and  _37
REMARK   17  A    between atoms: _37  and  _38
REMARK   18  A    between atoms: _38  and  _39
REMARK   19  A    between atoms: _44  and  _46
REMARK   20  A    between atoms: _46  and  _47
REMARK   21  A    between atoms: _46  and  _49
REMARK   22  A    between atoms: _49  and  _50
REMARK   23  A    between atoms: _50  and  _51
REMARK   24  A    between atoms: _51  and  _52
REMARK   25  A    between atoms: _61  and  _63
REMARK   26  A    between atoms: _63  and  _64
REMARK   27  A    between atoms: _63  and  _66
REMARK   28  A    between atoms: _66  and  _67
REMARK   29  A    between atoms: _72  and  _74
REMARK   30  A    between atoms: _74  and  _75
REMARK   31  A    between atoms: _74  and  _77
REMARK   32  A    between atoms: _77  and  _78
REMARK   33  A    between atoms: _83  and  _85
REMARK   34  A    between atoms: _85  and  _86
REMARK   35  A    between atoms: _85  and  _88
REMARK   36  A    between atoms: _88  and  _89
REMARK   37  A    between atoms: _94  and  _95
REMARK   38  A    between atoms: _97  and  _99
REMARK   39  A    between atoms: _99  and  _100
REMARK   40  A    between atoms: _99  and  _102
REMARK   41  A    between atoms: _102  and  _103
REMARK   42  A    between atoms: _108  and  _110
REMARK   43  A    between atoms: _110  and  _111
REMARK   44  A    between atoms: _110  and  _113
REMARK   45  A    between atoms: _113  and  _114
REMARK   46  A    between atoms: _114  and  _115
REMARK   47  A    between atoms: _120  and  _122
REMARK   48  A    between atoms: _122  and  _123
REMARK   49  A    between atoms: _122  and  _125
REMARK   50  A    between atoms: _125  and  _126
REMARK   51  A    between atoms: _126  and  _127
REMARK   52  A    between atoms: _127  and  _128
REMARK   53  A    between atoms: _137  and  _139
REMARK   54  A    between atoms: _139  and  _140
REMARK   55  A    between atoms: _139  and  _142
REMARK   56  A    between atoms: _142  and  _143
REMARK   57  A    between atoms: _146  and  _148
REMARK   58  A    between atoms: _148  and  _149
REMARK   59  A    between atoms: _148  and  _151
REMARK   60  A    between atoms: _151  and  _152
REMARK   61  A    between atoms: _155  and  _157
REMARK   62  A    between atoms: _157  and  _158
REMARK   63  A    between atoms: _157  and  _160
REMARK   64  A    between atoms: _160  and  _161
REMARK   65  A    between atoms: _164  and  _166
REMARK   66  A    between atoms: _166  and  _167
REMARK   67  A    between atoms: _166  and  _169
REMARK   68  A    between atoms: _169  and  _170
REMARK   69  A    between atoms: _173  and  _175
REMARK   70  A    between atoms: _175  and  _176
REMARK   71  A    between atoms: _175  and  _178
REMARK   72  A    between atoms: _178  and  _179
REMARK   73  A    between atoms: _179  and  _180
REMARK   74  A    between atoms: _185  and  _187
REMARK   75  A    between atoms: _187  and  _188
REMARK   76  A    between atoms: _187  and  _190
REMARK   77  A    between atoms: _190  and  _191
REMARK   78  A    between atoms: _194  and  _196
REMARK   79  A    between atoms: _196  and  _197
REMARK   80  A    between atoms: _196  and  _199
REMARK   81  A    between atoms: _199  and  _200
REMARK   82  A    between atoms: _205  and  _207
REMARK   83  A    between atoms: _207  and  _208
REMARK   84  A    between atoms: _207  and  _210
REMARK   85  A    between atoms: _213  and  _215
REMARK   86  A    between atoms: _215  and  _216
REMARK   87  A    between atoms: _215  and  _218
REMARK   88  A    between atoms: _218  and  _219
REMARK   89  A    between atoms: _222  and  _224
REMARK   90  A    between atoms: _224  and  _225
REMARK   91  A    between atoms: _224  and  _227
REMARK   92  A    between atoms: _227  and  _228
REMARK   93  A    between atoms: _231  and  _233
REMARK   94  A    between atoms: _233  and  _234
REMARK   95  A    between atoms: _233  and  _236
REMARK   96  A    between atoms: _236  and  _237
REMARK   97  A    between atoms: _243  and  _245
REMARK   98  A    between atoms: _245  and  _246
REMARK   99  A    between atoms: _245  and  _248
REMARK  100  A    between atoms: _248  and  _249
REMARK  101  A    between atoms: _254  and  _256
REMARK  102  A    between atoms: _256  and  _257
REMARK  103  A    between atoms: _256  and  _259
REMARK  104  A    between atoms: _259  and  _260
REMARK  105  A    between atoms: _270  and  _272
REMARK  106  A    between atoms: _272  and  _273
REMARK  107  A    between atoms: _272  and  _275
REMARK  108  A    between atoms: _275  and  _276
REMARK  109  A    between atoms: _281  and  _282
REMARK  110  A    between atoms: _284  and  _286
REMARK  111  A    between atoms: _286  and  _287
REMARK  112  A    between atoms: _286  and  _289
REMARK  113  A    between atoms: _289  and  _290
REMARK  114  A    between atoms: _295  and  _297
REMARK  115  A    between atoms: _297  and  _298
REMARK  116  A    between atoms: _297  and  _300
REMARK  117  A    between atoms: _300  and  _301
REMARK  118  A    between atoms: _306  and  _308
REMARK  119  A    between atoms: _308  and  _309
REMARK  120  A    between atoms: _308  and  _311
REMARK  121  A    between atoms: _311  and  _312
REMARK  122  A    between atoms: _312  and  _313
REMARK  123  A    between atoms: _318  and  _320
REMARK  124  A    between atoms: _320  and  _321
REMARK  125  A    between atoms: _320  and  _323
REMARK  126  A    between atoms: _323  and  _324
REMARK  127  A    between atoms: _329  and  _330
REMARK  128  A    between atoms: _332  and  _334
REMARK  129  A    between atoms: _334  and  _335
REMARK  130  A    between atoms: _334  and  _337
REMARK  131  A    between atoms: _337  and  _338
REMARK  132  A    between atoms: _341  and  _343
REMARK  133  A    between atoms: _343  and  _344
REMARK  134  A    between atoms: _347  and  _349
REMARK  135  A    between atoms: _349  and  _350
REMARK  136  A    between atoms: _349  and  _352
REMARK  137  A    between atoms: _352  and  _353
REMARK  138  A    between atoms: _355  and  _357
REMARK  139  A    between atoms: _357  and  _358
REMARK  140  A    between atoms: _357  and  _360
REMARK  141  A    between atoms: _360  and  _361
REMARK  142  A    between atoms: _361  and  _362
REMARK  143  A    between atoms: _364  and  _366
REMARK  144  A    between atoms: _366  and  _367
REMARK  145  A    between atoms: _366  and  _369
REMARK  146  A    between atoms: _369  and  _370
REMARK  147  A    between atoms: _370  and  _371
REMARK  148  A    between atoms: _376  and  _378
REMARK  149  A    between atoms: _378  and  _379
REMARK  150  A    between atoms: _378  and  _381
REMARK  151  A    between atoms: _381  and  _382
REMARK  152  A    between atoms: _384  and  _386
REMARK  153  A    between atoms: _386  and  _387
REMARK  154  A    between atoms: _386  and  _389
REMARK  155  A    between atoms: _389  and  _390
REMARK  156  A    between atoms: _395  and  _396
REMARK  157  A    between atoms: _398  and  _400
REMARK  158  A    between atoms: _400  and  _401
REMARK  159  A    between atoms: _400  and  _403
REMARK  160  A    between atoms: _403  and  _404
REMARK  161  A    between atoms: _406  and  _408
REMARK  162  A    between atoms: _408  and  _409
REMARK  163  A    between atoms: _412  and  _414
REMARK  164  A    between atoms: _414  and  _415
REMARK  165  A    between atoms: _414  and  _417
REMARK  166  A    between atoms: _417  and  _418
REMARK  167  A    between atoms: _428  and  _430
REMARK  168  A    between atoms: _430  and  _431
REMARK  169  A    between atoms: _430  and  _433
REMARK  170  A    between atoms: _433  and  _434
REMARK  171  A    between atoms: _434  and  _435
REMARK  172  A    between atoms: _440  and  _442
REMARK  173  A    between atoms: _442  and  _443
REMARK  174  A    between atoms: _442  and  _445
REMARK  175  A    between atoms: _448  and  _450
REMARK  176  A    between atoms: _450  and  _451
REMARK  177  A    between atoms: _450  and  _453
REMARK  178  A    between atoms: _453  and  _454
REMARK  179  A    between atoms: _457  and  _459
REMARK  180  A    between atoms: _459  and  _460
REMARK  181  A    between atoms: _459  and  _462
REMARK  182  A    between atoms: _462  and  _463
REMARK  183  A    between atoms: _468  and  _469
REMARK  184  A    between atoms: _471  and  _473
REMARK  185  A    between atoms: _473  and  _474
REMARK  186  A    between atoms: _473  and  _476
REMARK  187  A    between atoms: _479  and  _481
REMARK  188  A    between atoms: _481  and  _482
REMARK  189  A    between atoms: _481  and  _484
REMARK  190  A    between atoms: _484  and  _485
REMARK  191  A    between atoms: _491  and  _493
REMARK  192  A    between atoms: _493  and  _494
REMARK  193  A    between atoms: _493  and  _496
REMARK  194  A    between atoms: _496  and  _497
REMARK  195  A    between atoms: _497  and  _498
REMARK  196  A    between atoms: _503  and  _505
REMARK  197  A    between atoms: _505  and  _506
REMARK  198  A    between atoms: _505  and  _508
REMARK  199  A    between atoms: _508  and  _509
REMARK  200  A    between atoms: _511  and  _513
REMARK  201  A    between atoms: _513  and  _514
REMARK  202  A    between atoms: _513  and  _516
REMARK  203  A    between atoms: _516  and  _517
REMARK  204  A    between atoms: _522  and  _524
REMARK  205  A    between atoms: _524  and  _525
REMARK  206  A    between atoms: _524  and  _527
REMARK  207  A    between atoms: _527  and  _528
REMARK  208  A    between atoms: _538  and  _540
REMARK  209  A    between atoms: _540  and  _541
REMARK  210  A    between atoms: _540  and  _543
REMARK  211  A    between atoms: _543  and  _544
REMARK  212  A    between atoms: _547  and  _549
REMARK  213  A    between atoms: _549  and  _550
REMARK  214  A    between atoms: _549  and  _552
REMARK  215  A    between atoms: _552  and  _553
REMARK  216  A    between atoms: _558  and  _559
REMARK  217  A    between atoms: _561  and  _563
REMARK  218  A    between atoms: _563  and  _564
REMARK  219  A    between atoms: _563  and  _566
REMARK  220  A    between atoms: _566  and  _567
REMARK  221  A    between atoms: _570  and  _572
REMARK  222  A    between atoms: _572  and  _573
REMARK  223  A    between atoms: _572  and  _575
REMARK  224  A    between atoms: _575  and  _576
REMARK  225  A    between atoms: _576  and  _577
REMARK  226  A    between atoms: _580  and  _582
REMARK  227  A    between atoms: _582  and  _583
REMARK  228  A    between atoms: _582  and  _585
REMARK  229  A    between atoms: _585  and  _586
REMARK  230  A    between atoms: _591  and  _593
REMARK  231  A    between atoms: _593  and  _594
REMARK  232  A    between atoms: _596  and  _598
REMARK  233  A    between atoms: _598  and  _599
REMARK  234  A    between atoms: _598  and  _601
REMARK  235  A    between atoms: _601  and  _602
REMARK  236  A    between atoms: _602  and  _603
REMARK  237  A    between atoms: _605  and  _607
REMARK  238  A    between atoms: _607  and  _608
REMARK  239  A    between atoms: _607  and  _610
REMARK  240  A    between atoms: _610  and  _611
REMARK  241  A    between atoms: _614  and  _616
REMARK  242  A    between atoms: _616  and  _617
REMARK  243  A    between atoms: _616  and  _619
REMARK  244  A    between atoms: _619  and  _620
REMARK  245  A    between atoms: _630  and  _632
REMARK  246  A    between atoms: _632  and  _633
REMARK  247  A    between atoms: _632  and  _635
REMARK  248  A    between atoms: _635  and  _636
REMARK  249  A    between atoms: _638  and  _640
REMARK  250  A    between atoms: _640  and  _641
REMARK  251  A    between atoms: _640  and  _643
REMARK  252  A    between atoms: _643  and  _644
REMARK  253  A    between atoms: _649  and  _651
REMARK  254  A    between atoms: _651  and  _652
REMARK  255  A    between atoms: _651  and  _654
REMARK  256  A    between atoms: _654  and  _655
REMARK  257  A    between atoms: _661  and  _663
REMARK  258  A    between atoms: _663  and  _664
REMARK  259  A    between atoms: _663  and  _666
REMARK  260  A    between atoms: _666  and  _667
REMARK  261  A    between atoms: _667  and  _668
REMARK  262  A    between atoms: _671  and  _673
REMARK  263  A    between atoms: _673  and  _674
REMARK  264  A    between atoms: _673  and  _676
REMARK  265  A    between atoms: _676  and  _677
REMARK  266  A    between atoms: _687  and  _689
REMARK  267  A    between atoms: _689  and  _690
REMARK  268  A    between atoms: _689  and  _692
REMARK  269  A    between atoms: _692  and  _693
REMARK  270  A    between atoms: _696  and  _698
REMARK  271  A    between atoms: _698  and  _699
REMARK  272  A    between atoms: _698  and  _701
REMARK  273  A    between atoms: _701  and  _702
REMARK  274  A    between atoms: _704  and  _706
REMARK  275  A    between atoms: _706  and  _707
REMARK  276  A    between atoms: _706  and  _709
REMARK  277  A    between atoms: _709  and  _710
REMARK  278  A    between atoms: _712  and  _714
REMARK  279  A    between atoms: _714  and  _715
REMARK  280  A    between atoms: _714  and  _717
REMARK  281  A    between atoms: _717  and  _718
REMARK                            x       y       z     vdW  Elec       q    Type
REMARK                         _______ _______ _______ _____ _____    ______ ____
ROOT
ATOM      1  O   HOH     1      -8.246   7.084  47.148  0.00  0.00    +0.000 OA
ENDROOT
TORSDOF 0
REMARK  Name = ../refined-set-2016/3f5k/3f5k_pocket.pdb
REMARK  281 active torsions:
REMARK  status: ('A' for Active; 'I' for Inactive)
REMARK    1  A    between atoms: _1  and  _3
REMARK    2  A    between atoms: _3  and  _4
REMARK    3  A    between atoms: _3  and  _6
REMARK    4  A    between atoms: _9  and  _11
REMARK    5  A    between atoms: _11  and  _12
REMARK    6  A    between atoms: _11  and  _14
REMARK    7  A    between atoms: _14  and  _15
REMARK    8  A    between atoms: _18  and  _20
REMARK    9  A    between atoms: _20  and  _21
REMARK   10  A    between atoms: _20  and  _23
REMARK   11  A    between atoms: _23  and  _24
REMARK   12  A    between atoms: _26  and  _28
REMARK   13  A    between atoms: _28  and  _29
REMARK   14  A    between atoms: _32  and  _34
REMARK   15  A    between atoms: _34  and  _35
REMARK   16  A    between atoms: _34  and  _37
REMARK   17  A    between atoms: _37  and  _38
REMARK   18  A    between atoms: _38  and  _39
REMARK   19  A    between atoms: _44  and  _46
REMARK   20  A    between atoms: _46  and  _47
REMARK   21  A    between atoms: _46  and  _49
REMARK   22  A    between atoms: _49  and  _50
REMARK   23  A    between atoms: _50  and  _51
REMARK   24  A    between atoms: _51  and  _52
REMARK   25  A    between atoms: _61  and  _63
REMARK   26  A    between atoms: _63  and  _64
REMARK   27  A    between atoms: _63  and  _66
REMARK   28  A    between atoms: _66  and  _67
REMARK   29  A    between atoms: _72  and  _74
REMARK   30  A    between atoms: _74  and  _75
REMARK   31  A    between atoms: _74  and  _77
REMARK   32  A    between atoms: _77  and  _78
REMARK   33  A    between atoms: _83  and  _85
REMARK   34  A    between atoms: _85  and  _86
REMARK   35  A    between atoms: _85  and  _88
REMARK   36  A    between atoms: _88  and  _89
REMARK   37  A    between atoms: _94  and  _95
REMARK   38  A    between atoms: _97  and  _99
REMARK   39  A    between atoms: _99  and  _100
REMARK   40  A    between atoms: _99  and  _102
REMARK   41  A    between atoms: _102  and  _103
REMARK   42  A    between atoms: _108  and  _110
REMARK   43  A    between atoms: _110  and  _111
REMARK   44  A    between atoms: _110  and  _113
REMARK   45  A    between atoms: _113  and  _114
REMARK   46  A    between atoms: _114  and  _115
REMARK   47  A    between atoms: _120  and  _122
REMARK   48  A    between atoms: _122  and  _123
REMARK   49  A    between atoms: _122  and  _125
REMARK   50  A    between atoms: _125  and  _126
REMARK   51  A    between atoms: _126  and  _127
REMARK   52  A    between atoms: _127  and  _128
REMARK   53  A    between atoms: _137  and  _139
REMARK   54  A    between atoms: _139  and  _140
REMARK   55  A    between atoms: _139  and  _142
REMARK   56  A    between atoms: _142  and  _143
REMARK   57  A    between atoms: _146  and  _148
REMARK   58  A    between atoms: _148  and  _149
REMARK   59  A    between atoms: _148  and  _151
REMARK   60  A    between atoms: _151  and  _152
REMARK   61  A    between atoms: _155  and  _157
REMARK   62  A    between atoms: _157  and  _158
REMARK   63  A    between atoms: _157  and  _160
REMARK   64  A    between atoms: _160  and  _161
REMARK   65  A    between atoms: _164  and  _166
REMARK   66  A    between atoms: _166  and  _167
REMARK   67  A    between atoms: _166  and  _169
REMARK   68  A    between atoms: _169  and  _170
REMARK   69  A    between atoms: _173  and  _175
REMARK   70  A    between atoms: _175  and  _176
REMARK   71  A    between atoms: _175  and  _178
REMARK   72  A    between atoms: _178  and  _179
REMARK   73  A    between atoms: _179  and  _180
REMARK   74  A    between atoms: _185  and  _187
REMARK   75  A    between atoms: _187  and  _188
REMARK   76  A    between atoms: _187  and  _190
REMARK   77  A    between atoms: _190  and  _191
REMARK   78  A    between atoms: _194  and  _196
REMARK   79  A    between atoms: _196  and  _197
REMARK   80  A    between atoms: _196  and  _199
REMARK   81  A    between atoms: _199  and  _200
REMARK   82  A    between atoms: _205  and  _207
REMARK   83  A    between atoms: _207  and  _208
REMARK   84  A    between atoms: _207  and  _210
REMARK   85  A    between atoms: _213  and  _215
REMARK   86  A    between atoms: _215  and  _216
REMARK   87  A    between atoms: _215  and  _218
REMARK   88  A    between atoms: _218  and  _219
REMARK   89  A    between atoms: _222  and  _224
REMARK   90  A    between atoms: _224  and  _225
REMARK   91  A    between atoms: _224  and  _227
REMARK   92  A    between atoms: _227  and  _228
REMARK   93  A    between atoms: _231  and  _233
REMARK   94  A    between atoms: _233  and  _234
REMARK   95  A    between atoms: _233  and  _236
REMARK   96  A    between atoms: _236  and  _237
REMARK   97  A    between atoms: _243  and  _245
REMARK   98  A    between atoms: _245  and  _246
REMARK   99  A    between atoms: _245  and  _248
REMARK  100  A    between atoms: _248  and  _249
REMARK  101  A    between atoms: _254  and  _256
REMARK  102  A    between atoms: _256  and  _257
REMARK  103  A    between atoms: _256  and  _259
REMARK  104  A    between atoms: _259  and  _260
REMARK  105  A    between atoms: _270  and  _272
REMARK  106  A    between atoms: _272  and  _273
REMARK  107  A    between atoms: _272  and  _275
REMARK  108  A    between atoms: _275  and  _276
REMARK  109  A    between atoms: _281  and  _282
REMARK  110  A    between atoms: _284  and  _286
REMARK  111  A    between atoms: _286  and  _287
REMARK  112  A    between atoms: _286  and  _289
REMARK  113  A    between atoms: _289  and  _290
REMARK  114  A    between atoms: _295  and  _297
REMARK  115  A    between atoms: _297  and  _298
REMARK  116  A    between atoms: _297  and  _300
REMARK  117  A    between atoms: _300  and  _301
REMARK  118  A    between atoms: _306  and  _308
REMARK  119  A    between atoms: _308  and  _309
REMARK  120  A    between atoms: _308  and  _311
REMARK  121  A    between atoms: _311  and  _312
REMARK  122  A    between atoms: _312  and  _313
REMARK  123  A    between atoms: _318  and  _320
REMARK  124  A    between atoms: _320  and  _321
REMARK  125  A    between atoms: _320  and  _323
REMARK  126  A    between atoms: _323  and  _324
REMARK  127  A    between atoms: _329  and  _330
REMARK  128  A    between atoms: _332  and  _334
REMARK  129  A    between atoms: _334  and  _335
REMARK  130  A    between atoms: _334  and  _337
REMARK  131  A    between atoms: _337  and  _338
REMARK  132  A    between atoms: _341  and  _343
REMARK  133  A    between atoms: _343  and  _344
REMARK  134  A    between atoms: _347  and  _349
REMARK  135  A    between atoms: _349  and  _350
REMARK  136  A    between atoms: _349  and  _352
REMARK  137  A    between atoms: _352  and  _353
REMARK  138  A    between atoms: _355  and  _357
REMARK  139  A    between atoms: _357  and  _358
REMARK  140  A    between atoms: _357  and  _360
REMARK  141  A    between atoms: _360  and  _361
REMARK  142  A    between atoms: _361  and  _362
REMARK  143  A    between atoms: _364  and  _366
REMARK  144  A    between atoms: _366  and  _367
REMARK  145  A    between atoms: _366  and  _369
REMARK  146  A    between atoms: _369  and  _370
REMARK  147  A    between atoms: _370  and  _371
REMARK  148  A    between atoms: _376  and  _378
REMARK  149  A    between atoms: _378  and  _379
REMARK  150  A    between atoms: _378  and  _381
REMARK  151  A    between atoms: _381  and  _382
REMARK  152  A    between atoms: _384  and  _386
REMARK  153  A    between atoms: _386  and  _387
REMARK  154  A    between atoms: _386  and  _389
REMARK  155  A    between atoms: _389  and  _390
REMARK  156  A    between atoms: _395  and  _396
REMARK  157  A    between atoms: _398  and  _400
REMARK  158  A    between atoms: _400  and  _401
REMARK  159  A    between atoms: _400  and  _403
REMARK  160  A    between atoms: _403  and  _404
REMARK  161  A    between atoms: _406  and  _408
REMARK  162  A    between atoms: _408  and  _409
REMARK  163  A    between atoms: _412  and  _414
REMARK  164  A    between atoms: _414  and  _415
REMARK  165  A    between atoms: _414  and  _417
REMARK  166  A    between atoms: _417  and  _418
REMARK  167  A    between atoms: _428  and  _430
REMARK  168  A    between atoms: _430  and  _431
REMARK  169  A    between atoms: _430  and  _433
REMARK  170  A    between atoms: _433  and  _434
REMARK  171  A    between atoms: _434  and  _435
REMARK  172  A    between atoms: _440  and  _442
REMARK  173  A    between atoms: _442  and  _443
REMARK  174  A    between atoms: _442  and  _445
REMARK  175  A    between atoms: _448  and  _450
REMARK  176  A    between atoms: _450  and  _451
REMARK  177  A    between atoms: _450  and  _453
REMARK  178  A    between atoms: _453  and  _454
REMARK  179  A    between atoms: _457  and  _459
REMARK  180  A    between atoms: _459  and  _460
REMARK  181  A    between atoms: _459  and  _462
REMARK  182  A    between atoms: _462  and  _463
REMARK  183  A    between atoms: _468  and  _469
REMARK  184  A    between atoms: _471  and  _473
REMARK  185  A    between atoms: _473  and  _474
REMARK  186  A    between atoms: _473  and  _476
REMARK  187  A    between atoms: _479  and  _481
REMARK  188  A    between atoms: _481  and  _482
REMARK  189  A    between atoms: _481  and  _484
REMARK  190  A    between atoms: _484  and  _485
REMARK  191  A    between atoms: _491  and  _493
REMARK  192  A    between atoms: _493  and  _494
REMARK  193  A    between atoms: _493  and  _496
REMARK  194  A    between atoms: _496  and  _497
REMARK  195  A    between atoms: _497  and  _498
REMARK  196  A    between atoms: _503  and  _505
REMARK  197  A    between atoms: _505  and  _506
REMARK  198  A    between atoms: _505  and  _508
REMARK  199  A    between atoms: _508  and  _509
REMARK  200  A    between atoms: _511  and  _513
REMARK  201  A    between atoms: _513  and  _514
REMARK  202  A    between atoms: _513  and  _516
REMARK  203  A    between atoms: _516  and  _517
REMARK  204  A    between atoms: _522  and  _524
REMARK  205  A    between atoms: _524  and  _525
REMARK  206  A    between atoms: _524  and  _527
REMARK  207  A    between atoms: _527  and  _528
REMARK  208  A    between atoms: _538  and  _540
REMARK  209  A    between atoms: _540  and  _541
REMARK  210  A    between atoms: _540  and  _543
REMARK  211  A    between atoms: _543  and  _544
REMARK  212  A    between atoms: _547  and  _549
REMARK  213  A    between atoms: _549  and  _550
REMARK  214  A    between atoms: _549  and  _552
REMARK  215  A    between atoms: _552  and  _553
REMARK  216  A    between atoms: _558  and  _559
REMARK  217  A    between atoms: _561  and  _563
REMARK  218  A    between atoms: _563  and  _564
REMARK  219  A    between atoms: _563  and  _566
REMARK  220  A    between atoms: _566  and  _567
REMARK  221  A    between atoms: _570  and  _572
REMARK  222  A    between atoms: _572  and  _573
REMARK  223  A    between atoms: _572  and  _575
REMARK  224  A    between atoms: _575  and  _576
REMARK  225  A    between atoms: _576  and  _577
REMARK  226  A    between atoms: _580  and  _582
REMARK  227  A    between atoms: _582  and  _583
REMARK  228  A    between atoms: _582  and  _585
REMARK  229  A    between atoms: _585  and  _586
REMARK  230  A    between atoms: _591  and  _593
REMARK  231  A    between atoms: _593  and  _594
REMARK  232  A    between atoms: _596  and  _598
REMARK  233  A    between atoms: _598  and  _599
REMARK  234  A    between atoms: _598  and  _601
REMARK  235  A    between atoms: _601  and  _602
REMARK  236  A    between atoms: _602  and  _603
REMARK  237  A    between atoms: _605  and  _607
REMARK  238  A    between atoms: _607  and  _608
REMARK  239  A    between atoms: _607  and  _610
REMARK  240  A    between atoms: _610  and  _611
REMARK  241  A    between atoms: _614  and  _616
REMARK  242  A    between atoms: _616  and  _617
REMARK  243  A    between atoms: _616  and  _619
REMARK  244  A    between atoms: _619  and  _620
REMARK  245  A    between atoms: _630  and  _632
REMARK  246  A    between atoms: _632  and  _633
REMARK  247  A    between atoms: _632  and  _635
REMARK  248  A    between atoms: _635  and  _636
REMARK  249  A    between atoms: _638  and  _640
REMARK  250  A    between atoms: _640  and  _641
REMARK  251  A    between atoms: _640  and  _643
REMARK  252  A    between atoms: _643  and  _644
REMARK  253  A    between atoms: _649  and  _651
REMARK  254  A    between atoms: _651  and  _652
REMARK  255  A    between atoms: _651  and  _654
REMARK  256  A    between atoms: _654  and  _655
REMARK  257  A    between atoms: _661  and  _663
REMARK  258  A    between atoms: _663  and  _664
REMARK  259  A    between atoms: _663  and  _666
REMARK  260  A    between atoms: _666  and  _667
REMARK  261  A    between atoms: _667  and  _668
REMARK  262  A    between atoms: _671  and  _673
REMARK  263  A    between atoms: _673  and  _674
REMARK  264  A    between atoms: _673  and  _676
REMARK  265  A    between atoms: _676  and  _677
REMARK  266  A    between atoms: _687  and  _689
REMARK  267  A    between atoms: _689  and  _690
REMARK  268  A    between atoms: _689  and  _692
REMARK  269  A    between atoms: _692  and  _693
REMARK  270  A    between atoms: _696  and  _698
REMARK  271  A    between atoms: _698  and  _699
REMARK  272  A    between atoms: _698  and  _701
REMARK  273  A    between atoms: _701  and  _702
REMARK  274  A    between atoms: _704  and  _706
REMARK  275  A    between atoms: _706  and  _707
REMARK  276  A    between atoms: _706  and  _709
REMARK  277  A    between atoms: _709  and  _710
REMARK  278  A    between atoms: _712  and  _714
REMARK  279  A    between atoms: _714  and  _715
REMARK  280  A    between atoms: _714  and  _717
REMARK  281  A    between atoms: _717  and  _718
REMARK                            x       y       z     vdW  Elec       q    Type
REMARK                         _______ _______ _______ _____ _____    ______ ____
ROOT
ATOM      1  O   HOH     1       3.309  -1.867  37.170  0.00  0.00    +0.000 OA
ENDROOT
TORSDOF 0
REMARK  Name = ../refined-set-2016/3f5k/3f5k_pocket.pdb
REMARK  281 active torsions:
REMARK  status: ('A' for Active; 'I' for Inactive)
REMARK    1  A    between atoms: _1  and  _3
REMARK    2  A    between atoms: _3  and  _4
REMARK    3  A    between atoms: _3  and  _6
REMARK    4  A    between atoms: _9  and  _11
REMARK    5  A    between atoms: _11  and  _12
REMARK    6  A    between atoms: _11  and  _14
REMARK    7  A    between atoms: _14  and  _15
REMARK    8  A    between atoms: _18  and  _20
REMARK    9  A    between atoms: _20  and  _21
REMARK   10  A    between atoms: _20  and  _23
REMARK   11  A    between atoms: _23  and  _24
REMARK   12  A    between atoms: _26  and  _28
REMARK   13  A    between atoms: _28  and  _29
REMARK   14  A    between atoms: _32  and  _34
REMARK   15  A    between atoms: _34  and  _35
REMARK   16  A    between atoms: _34  and  _37
REMARK   17  A    between atoms: _37  and  _38
REMARK   18  A    between atoms: _38  and  _39
REMARK   19  A    between atoms: _44  and  _46
REMARK   20  A    between atoms: _46  and  _47
REMARK   21  A    between atoms: _46  and  _49
REMARK   22  A    between atoms: _49  and  _50
REMARK   23  A    between atoms: _50  and  _51
REMARK   24  A    between atoms: _51  and  _52
REMARK   25  A    between atoms: _61  and  _63
REMARK   26  A    between atoms: _63  and  _64
REMARK   27  A    between atoms: _63  and  _66
REMARK   28  A    between atoms: _66  and  _67
REMARK   29  A    between atoms: _72  and  _74
REMARK   30  A    between atoms: _74  and  _75
REMARK   31  A    between atoms: _74  and  _77
REMARK   32  A    between atoms: _77  and  _78
REMARK   33  A    between atoms: _83  and  _85
REMARK   34  A    between atoms: _85  and  _86
REMARK   35  A    between atoms: _85  and  _88
REMARK   36  A    between atoms: _88  and  _89
REMARK   37  A    between atoms: _94  and  _95
REMARK   38  A    between atoms: _97  and  _99
REMARK   39  A    between atoms: _99  and  _100
REMARK   40  A    between atoms: _99  and  _102
REMARK   41  A    between atoms: _102  and  _103
REMARK   42  A    between atoms: _108  and  _110
REMARK   43  A    between atoms: _110  and  _111
REMARK   44  A    between atoms: _110  and  _113
REMARK   45  A    between atoms: _113  and  _114
REMARK   46  A    between atoms: _114  and  _115
REMARK   47  A    between atoms: _120  and  _122
REMARK   48  A    between atoms: _122  and  _123
REMARK   49  A    between atoms: _122  and  _125
REMARK   50  A    between atoms: _125  and  _126
REMARK   51  A    between atoms: _126  and  _127
REMARK   52  A    between atoms: _127  and  _128
REMARK   53  A    between atoms: _137  and  _139
REMARK   54  A    between atoms: _139  and  _140
REMARK   55  A    between atoms: _139  and  _142
REMARK   56  A    between atoms: _142  and  _143
REMARK   57  A    between atoms: _146  and  _148
REMARK   58  A    between atoms: _148  and  _149
REMARK   59  A    between atoms: _148  and  _151
REMARK   60  A    between atoms: _151  and  _152
REMARK   61  A    between atoms: _155  and  _157
REMARK   62  A    between atoms: _157  and  _158
REMARK   63  A    between atoms: _157  and  _160
REMARK   64  A    between atoms: _160  and  _161
REMARK   65  A    between atoms: _164  and  _166
REMARK   66  A    between atoms: _166  and  _167
REMARK   67  A    between atoms: _166  and  _169
REMARK   68  A    between atoms: _169  and  _170
REMARK   69  A    between atoms: _173  and  _175
REMARK   70  A    between atoms: _175  and  _176
REMARK   71  A    between atoms: _175  and  _178
REMARK   72  A    between atoms: _178  and  _179
REMARK   73  A    between atoms: _179  and  _180
REMARK   74  A    between atoms: _185  and  _187
REMARK   75  A    between atoms: _187  and  _188
REMARK   76  A    between atoms: _187  and  _190
REMARK   77  A    between atoms: _190  and  _191
REMARK   78  A    between atoms: _194  and  _196
REMARK   79  A    between atoms: _196  and  _197
REMARK   80  A    between atoms: _196  and  _199
REMARK   81  A    between atoms: _199  and  _200
REMARK   82  A    between atoms: _205  and  _207
REMARK   83  A    between atoms: _207  and  _208
REMARK   84  A    between atoms: _207  and  _210
REMARK   85  A    between atoms: _213  and  _215
REMARK   86  A    between atoms: _215  and  _216
REMARK   87  A    between atoms: _215  and  _218
REMARK   88  A    between atoms: _218  and  _219
REMARK   89  A    between atoms: _222  and  _224
REMARK   90  A    between atoms: _224  and  _225
REMARK   91  A    between atoms: _224  and  _227
REMARK   92  A    between atoms: _227  and  _228
REMARK   93  A    between atoms: _231  and  _233
REMARK   94  A    between atoms: _233  and  _234
REMARK   95  A    between atoms: _233  and  _236
REMARK   96  A    between atoms: _236  and  _237
REMARK   97  A    between atoms: _243  and  _245
REMARK   98  A    between atoms: _245  and  _246
REMARK   99  A    between atoms: _245  and  _248
REMARK  100  A    between atoms: _248  and  _249
REMARK  101  A    between atoms: _254  and  _256
REMARK  102  A    between atoms: _256  and  _257
REMARK  103  A    between atoms: _256  and  _259
REMARK  104  A    between atoms: _259  and  _260
REMARK  105  A    between atoms: _270  and  _272
REMARK  106  A    between atoms: _272  and  _273
REMARK  107  A    between atoms: _272  and  _275
REMARK  108  A    between atoms: _275  and  _276
REMARK  109  A    between atoms: _281  and  _282
REMARK  110  A    between atoms: _284  and  _286
REMARK  111  A    between atoms: _286  and  _287
REMARK  112  A    between atoms: _286  and  _289
REMARK  113  A    between atoms: _289  and  _290
REMARK  114  A    between atoms: _295  and  _297
REMARK  115  A    between atoms: _297  and  _298
REMARK  116  A    between atoms: _297  and  _300
REMARK  117  A    between atoms: _300  and  _301
REMARK  118  A    between atoms: _306  and  _308
REMARK  119  A    between atoms: _308  and  _309
REMARK  120  A    between atoms: _308  and  _311
REMARK  121  A    between atoms: _311  and  _312
REMARK  122  A    between atoms: _312  and  _313
REMARK  123  A    between atoms: _318  and  _320
REMARK  124  A    between atoms: _320  and  _321
REMARK  125  A    between atoms: _320  and  _323
REMARK  126  A    between atoms: _323  and  _324
REMARK  127  A    between atoms: _329  and  _330
REMARK  128  A    between atoms: _332  and  _334
REMARK  129  A    between atoms: _334  and  _335
REMARK  130  A    between atoms: _334  and  _337
REMARK  131  A    between atoms: _337  and  _338
REMARK  132  A    between atoms: _341  and  _343
REMARK  133  A    between atoms: _343  and  _344
REMARK  134  A    between atoms: _347  and  _349
REMARK  135  A    between atoms: _349  and  _350
REMARK  136  A    between atoms: _349  and  _352
REMARK  137  A    between atoms: _352  and  _353
REMARK  138  A    between atoms: _355  and  _357
REMARK  139  A    between atoms: _357  and  _358
REMARK  140  A    between atoms: _357  and  _360
REMARK  141  A    between atoms: _360  and  _361
REMARK  142  A    between atoms: _361  and  _362
REMARK  143  A    between atoms: _364  and  _366
REMARK  144  A    between atoms: _366  and  _367
REMARK  145  A    between atoms: _366  and  _369
REMARK  146  A    between atoms: _369  and  _370
REMARK  147  A    between atoms: _370  and  _371
REMARK  148  A    between atoms: _376  and  _378
REMARK  149  A    between atoms: _378  and  _379
REMARK  150  A    between atoms: _378  and  _381
REMARK  151  A    between atoms: _381  and  _382
REMARK  152  A    between atoms: _384  and  _386
REMARK  153  A    between atoms: _386  and  _387
REMARK  154  A    between atoms: _386  and  _389
REMARK  155  A    between atoms: _389  and  _390
REMARK  156  A    between atoms: _395  and  _396
REMARK  157  A    between atoms: _398  and  _400
REMARK  158  A    between atoms: _400  and  _401
REMARK  159  A    between atoms: _400  and  _403
REMARK  160  A    between atoms: _403  and  _404
REMARK  161  A    between atoms: _406  and  _408
REMARK  162  A    between atoms: _408  and  _409
REMARK  163  A    between atoms: _412  and  _414
REMARK  164  A    between atoms: _414  and  _415
REMARK  165  A    between atoms: _414  and  _417
REMARK  166  A    between atoms: _417  and  _418
REMARK  167  A    between atoms: _428  and  _430
REMARK  168  A    between atoms: _430  and  _431
REMARK  169  A    between atoms: _430  and  _433
REMARK  170  A    between atoms: _433  and  _434
REMARK  171  A    between atoms: _434  and  _435
REMARK  172  A    between atoms: _440  and  _442
REMARK  173  A    between atoms: _442  and  _443
REMARK  174  A    between atoms: _442  and  _445
REMARK  175  A    between atoms: _448  and  _450
REMARK  176  A    between atoms: _450  and  _451
REMARK  177  A    between atoms: _450  and  _453
REMARK  178  A    between atoms: _453  and  _454
REMARK  179  A    between atoms: _457  and  _459
REMARK  180  A    between atoms: _459  and  _460
REMARK  181  A    between atoms: _459  and  _462
REMARK  182  A    between atoms: _462  and  _463
REMARK  183  A    between atoms: _468  and  _469
REMARK  184  A    between atoms: _471  and  _473
REMARK  185  A    between atoms: _473  and  _474
REMARK  186  A    between atoms: _473  and  _476
REMARK  187  A    between atoms: _479  and  _481
REMARK  188  A    between atoms: _481  and  _482
REMARK  189  A    between atoms: _481  and  _484
REMARK  190  A    between atoms: _484  and  _485
REMARK  191  A    between atoms: _491  and  _493
REMARK  192  A    between atoms: _493  and  _494
REMARK  193  A    between atoms: _493  and  _496
REMARK  194  A    between atoms: _496  and  _497
REMARK  195  A    between atoms: _497  and  _498
REMARK  196  A    between atoms: _503  and  _505
REMARK  197  A    between atoms: _505  and  _506
REMARK  198  A    between atoms: _505  and  _508
REMARK  199  A    between atoms: _508  and  _509
REMARK  200  A    between atoms: _511  and  _513
REMARK  201  A    between atoms: _513  and  _514
REMARK  202  A    between atoms: _513  and  _516
REMARK  203  A    between atoms: _516  and  _517
REMARK  204  A    between atoms: _522  and  _524
REMARK  205  A    between atoms: _524  and  _525
REMARK  206  A    between atoms: _524  and  _527
REMARK  207  A    between atoms: _527  and  _528
REMARK  208  A    between atoms: _538  and  _540
REMARK  209  A    between atoms: _540  and  _541
REMARK  210  A    between atoms: _540  and  _543
REMARK  211  A    between atoms: _543  and  _544
REMARK  212  A    between atoms: _547  and  _549
REMARK  213  A    between atoms: _549  and  _550
REMARK  214  A    between atoms: _549  and  _552
REMARK  215  A    between atoms: _552  and  _553
REMARK  216  A    between atoms: _558  and  _559
REMARK  217  A    between atoms: _561  and  _563
REMARK  218  A    between atoms: _563  and  _564
REMARK  219  A    between atoms: _563  and  _566
REMARK  220  A    between atoms: _566  and  _567
REMARK  221  A    between atoms: _570  and  _572
REMARK  222  A    between atoms: _572  and  _573
REMARK  223  A    between atoms: _572  and  _575
REMARK  224  A    between atoms: _575  and  _576
REMARK  225  A    between atoms: _576  and  _577
REMARK  226  A    between atoms: _580  and  _582
REMARK  227  A    between atoms: _582  and  _583
REMARK  228  A    between atoms: _582  and  _585
REMARK  229  A    between atoms: _585  and  _586
REMARK  230  A    between atoms: _591  and  _593
REMARK  231  A    between atoms: _593  and  _594
REMARK  232  A    between atoms: _596  and  _598
REMARK  233  A    between atoms: _598  and  _599
REMARK  234  A    between atoms: _598  and  _601
REMARK  235  A    between atoms: _601  and  _602
REMARK  236  A    between atoms: _602  and  _603
REMARK  237  A    between atoms: _605  and  _607
REMARK  238  A    between atoms: _607  and  _608
REMARK  239  A    between atoms: _607  and  _610
REMARK  240  A    between atoms: _610  and  _611
REMARK  241  A    between atoms: _614  and  _616
REMARK  242  A    between atoms: _616  and  _617
REMARK  243  A    between atoms: _616  and  _619
REMARK  244  A    between atoms: _619  and  _620
REMARK  245  A    between atoms: _630  and  _632
REMARK  246  A    between atoms: _632  and  _633
REMARK  247  A    between atoms: _632  and  _635
REMARK  248  A    between atoms: _635  and  _636
REMARK  249  A    between atoms: _638  and  _640
REMARK  250  A    between atoms: _640  and  _641
REMARK  251  A    between atoms: _640  and  _643
REMARK  252  A    between atoms: _643  and  _644
REMARK  253  A    between atoms: _649  and  _651
REMARK  254  A    between atoms: _651  and  _652
REMARK  255  A    between atoms: _651  and  _654
REMARK  256  A    between atoms: _654  and  _655
REMARK  257  A    between atoms: _661  and  _663
REMARK  258  A    between atoms: _663  and  _664
REMARK  259  A    between atoms: _663  and  _666
REMARK  260  A    between atoms: _666  and  _667
REMARK  261  A    between atoms: _667  and  _668
REMARK  262  A    between atoms: _671  and  _673
REMARK  263  A    between atoms: _673  and  _674
REMARK  264  A    between atoms: _673  and  _676
REMARK  265  A    between atoms: _676  and  _677
REMARK  266  A    between atoms: _687  and  _689
REMARK  267  A    between atoms: _689  and  _690
REMARK  268  A    between atoms: _689  and  _692
REMARK  269  A    between atoms: _692  and  _693
REMARK  270  A    between atoms: _696  and  _698
REMARK  271  A    between atoms: _698  and  _699
REMARK  272  A    between atoms: _698  and  _701
REMARK  273  A    between atoms: _701  and  _702
REMARK  274  A    between atoms: _704  and  _706
REMARK  275  A    between atoms: _706  and  _707
REMARK  276  A    between atoms: _706  and  _709
REMARK  277  A    between atoms: _709  and  _710
REMARK  278  A    between atoms: _712  and  _714
REMARK  279  A    between atoms: _714  and  _715
REMARK  280  A    between atoms: _714  and  _717
REMARK  281  A    between atoms: _717  and  _718
REMARK                            x       y       z     vdW  Elec       q    Type
REMARK                         _______ _______ _______ _____ _____    ______ ____
ROOT
ATOM      1  O   HOH     1       4.813   2.637  48.528  0.00  0.00    +0.000 OA
ENDROOT
TORSDOF 0
REMARK  Name = ../refined-set-2016/3f5k/3f5k_pocket.pdb
REMARK  281 active torsions:
REMARK  status: ('A' for Active; 'I' for Inactive)
REMARK    1  A    between atoms: _1  and  _3
REMARK    2  A    between atoms: _3  and  _4
REMARK    3  A    between atoms: _3  and  _6
REMARK    4  A    between atoms: _9  and  _11
REMARK    5  A    between atoms: _11  and  _12
REMARK    6  A    between atoms: _11  and  _14
REMARK    7  A    between atoms: _14  and  _15
REMARK    8  A    between atoms: _18  and  _20
REMARK    9  A    between atoms: _20  and  _21
REMARK   10  A    between atoms: _20  and  _23
REMARK   11  A    between atoms: _23  and  _24
REMARK   12  A    between atoms: _26  and  _28
REMARK   13  A    between atoms: _28  and  _29
REMARK   14  A    between atoms: _32  and  _34
REMARK   15  A    between atoms: _34  and  _35
REMARK   16  A    between atoms: _34  and  _37
REMARK   17  A    between atoms: _37  and  _38
REMARK   18  A    between atoms: _38  and  _39
REMARK   19  A    between atoms: _44  and  _46
REMARK   20  A    between atoms: _46  and  _47
REMARK   21  A    between atoms: _46  and  _49
REMARK   22  A    between atoms: _49  and  _50
REMARK   23  A    between atoms: _50  and  _51
REMARK   24  A    between atoms: _51  and  _52
REMARK   25  A    between atoms: _61  and  _63
REMARK   26  A    between atoms: _63  and  _64
REMARK   27  A    between atoms: _63  and  _66
REMARK   28  A    between atoms: _66  and  _67
REMARK   29  A    between atoms: _72  and  _74
REMARK   30  A    between atoms: _74  and  _75
REMARK   31  A    between atoms: _74  and  _77
REMARK   32  A    between atoms: _77  and  _78
REMARK   33  A    between atoms: _83  and  _85
REMARK   34  A    between atoms: _85  and  _86
REMARK   35  A    between atoms: _85  and  _88
REMARK   36  A    between atoms: _88  and  _89
REMARK   37  A    between atoms: _94  and  _95
REMARK   38  A    between atoms: _97  and  _99
REMARK   39  A    between atoms: _99  and  _100
REMARK   40  A    between atoms: _99  and  _102
REMARK   41  A    between atoms: _102  and  _103
REMARK   42  A    between atoms: _108  and  _110
REMARK   43  A    between atoms: _110  and  _111
REMARK   44  A    between atoms: _110  and  _113
REMARK   45  A    between atoms: _113  and  _114
REMARK   46  A    between atoms: _114  and  _115
REMARK   47  A    between atoms: _120  and  _122
REMARK   48  A    between atoms: _122  and  _123
REMARK   49  A    between atoms: _122  and  _125
REMARK   50  A    between atoms: _125  and  _126
REMARK   51  A    between atoms: _126  and  _127
REMARK   52  A    between atoms: _127  and  _128
REMARK   53  A    between atoms: _137  and  _139
REMARK   54  A    between atoms: _139  and  _140
REMARK   55  A    between atoms: _139  and  _142
REMARK   56  A    between atoms: _142  and  _143
REMARK   57  A    between atoms: _146  and  _148
REMARK   58  A    between atoms: _148  and  _149
REMARK   59  A    between atoms: _148  and  _151
REMARK   60  A    between atoms: _151  and  _152
REMARK   61  A    between atoms: _155  and  _157
REMARK   62  A    between atoms: _157  and  _158
REMARK   63  A    between atoms: _157  and  _160
REMARK   64  A    between atoms: _160  and  _161
REMARK   65  A    between atoms: _164  and  _166
REMARK   66  A    between atoms: _166  and  _167
REMARK   67  A    between atoms: _166  and  _169
REMARK   68  A    between atoms: _169  and  _170
REMARK   69  A    between atoms: _173  and  _175
REMARK   70  A    between atoms: _175  and  _176
REMARK   71  A    between atoms: _175  and  _178
REMARK   72  A    between atoms: _178  and  _179
REMARK   73  A    between atoms: _179  and  _180
REMARK   74  A    between atoms: _185  and  _187
REMARK   75  A    between atoms: _187  and  _188
REMARK   76  A    between atoms: _187  and  _190
REMARK   77  A    between atoms: _190  and  _191
REMARK   78  A    between atoms: _194  and  _196
REMARK   79  A    between atoms: _196  and  _197
REMARK   80  A    between atoms: _196  and  _199
REMARK   81  A    between atoms: _199  and  _200
REMARK   82  A    between atoms: _205  and  _207
REMARK   83  A    between atoms: _207  and  _208
REMARK   84  A    between atoms: _207  and  _210
REMARK   85  A    between atoms: _213  and  _215
REMARK   86  A    between atoms: _215  and  _216
REMARK   87  A    between atoms: _215  and  _218
REMARK   88  A    between atoms: _218  and  _219
REMARK   89  A    between atoms: _222  and  _224
REMARK   90  A    between atoms: _224  and  _225
REMARK   91  A    between atoms: _224  and  _227
REMARK   92  A    between atoms: _227  and  _228
REMARK   93  A    between atoms: _231  and  _233
REMARK   94  A    between atoms: _233  and  _234
REMARK   95  A    between atoms: _233  and  _236
REMARK   96  A    between atoms: _236  and  _237
REMARK   97  A    between atoms: _243  and  _245
REMARK   98  A    between atoms: _245  and  _246
REMARK   99  A    between atoms: _245  and  _248
REMARK  100  A    between atoms: _248  and  _249
REMARK  101  A    between atoms: _254  and  _256
REMARK  102  A    between atoms: _256  and  _257
REMARK  103  A    between atoms: _256  and  _259
REMARK  104  A    between atoms: _259  and  _260
REMARK  105  A    between atoms: _270  and  _272
REMARK  106  A    between atoms: _272  and  _273
REMARK  107  A    between atoms: _272  and  _275
REMARK  108  A    between atoms: _275  and  _276
REMARK  109  A    between atoms: _281  and  _282
REMARK  110  A    between atoms: _284  and  _286
REMARK  111  A    between atoms: _286  and  _287
REMARK  112  A    between atoms: _286  and  _289
REMARK  113  A    between atoms: _289  and  _290
REMARK  114  A    between atoms: _295  and  _297
REMARK  115  A    between atoms: _297  and  _298
REMARK  116  A    between atoms: _297  and  _300
REMARK  117  A    between atoms: _300  and  _301
REMARK  118  A    between atoms: _306  and  _308
REMARK  119  A    between atoms: _308  and  _309
REMARK  120  A    between atoms: _308  and  _311
REMARK  121  A    between atoms: _311  and  _312
REMARK  122  A    between atoms: _312  and  _313
REMARK  123  A    between atoms: _318  and  _320
REMARK  124  A    between atoms: _320  and  _321
REMARK  125  A    between atoms: _320  and  _323
REMARK  126  A    between atoms: _323  and  _324
REMARK  127  A    between atoms: _329  and  _330
REMARK  128  A    between atoms: _332  and  _334
REMARK  129  A    between atoms: _334  and  _335
REMARK  130  A    between atoms: _334  and  _337
REMARK  131  A    between atoms: _337  and  _338
REMARK  132  A    between atoms: _341  and  _343
REMARK  133  A    between atoms: _343  and  _344
REMARK  134  A    between atoms: _347  and  _349
REMARK  135  A    between atoms: _349  and  _350
REMARK  136  A    between atoms: _349  and  _352
REMARK  137  A    between atoms: _352  and  _353
REMARK  138  A    between atoms: _355  and  _357
REMARK  139  A    between atoms: _357  and  _358
REMARK  140  A    between atoms: _357  and  _360
REMARK  141  A    between atoms: _360  and  _361
REMARK  142  A    between atoms: _361  and  _362
REMARK  143  A    between atoms: _364  and  _366
REMARK  144  A    between atoms: _366  and  _367
REMARK  145  A    between atoms: _366  and  _369
REMARK  146  A    between atoms: _369  and  _370
REMARK  147  A    between atoms: _370  and  _371
REMARK  148  A    between atoms: _376  and  _378
REMARK  149  A    between atoms: _378  and  _379
REMARK  150  A    between atoms: _378  and  _381
REMARK  151  A    between atoms: _381  and  _382
REMARK  152  A    between atoms: _384  and  _386
REMARK  153  A    between atoms: _386  and  _387
REMARK  154  A    between atoms: _386  and  _389
REMARK  155  A    between atoms: _389  and  _390
REMARK  156  A    between atoms: _395  and  _396
REMARK  157  A    between atoms: _398  and  _400
REMARK  158  A    between atoms: _400  and  _401
REMARK  159  A    between atoms: _400  and  _403
REMARK  160  A    between atoms: _403  and  _404
REMARK  161  A    between atoms: _406  and  _408
REMARK  162  A    between atoms: _408  and  _409
REMARK  163  A    between atoms: _412  and  _414
REMARK  164  A    between atoms: _414  and  _415
REMARK  165  A    between atoms: _414  and  _417
REMARK  166  A    between atoms: _417  and  _418
REMARK  167  A    between atoms: _428  and  _430
REMARK  168  A    between atoms: _430  and  _431
REMARK  169  A    between atoms: _430  and  _433
REMARK  170  A    between atoms: _433  and  _434
REMARK  171  A    between atoms: _434  and  _435
REMARK  172  A    between atoms: _440  and  _442
REMARK  173  A    between atoms: _442  and  _443
REMARK  174  A    between atoms: _442  and  _445
REMARK  175  A    between atoms: _448  and  _450
REMARK  176  A    between atoms: _450  and  _451
REMARK  177  A    between atoms: _450  and  _453
REMARK  178  A    between atoms: _453  and  _454
REMARK  179  A    between atoms: _457  and  _459
REMARK  180  A    between atoms: _459  and  _460
REMARK  181  A    between atoms: _459  and  _462
REMARK  182  A    between atoms: _462  and  _463
REMARK  183  A    between atoms: _468  and  _469
REMARK  184  A    between atoms: _471  and  _473
REMARK  185  A    between atoms: _473  and  _474
REMARK  186  A    between atoms: _473  and  _476
REMARK  187  A    between atoms: _479  and  _481
REMARK  188  A    between atoms: _481  and  _482
REMARK  189  A    between atoms: _481  and  _484
REMARK  190  A    between atoms: _484  and  _485
REMARK  191  A    between atoms: _491  and  _493
REMARK  192  A    between atoms: _493  and  _494
REMARK  193  A    between atoms: _493  and  _496
REMARK  194  A    between atoms: _496  and  _497
REMARK  195  A    between atoms: _497  and  _498
REMARK  196  A    between atoms: _503  and  _505
REMARK  197  A    between atoms: _505  and  _506
REMARK  198  A    between atoms: _505  and  _508
REMARK  199  A    between atoms: _508  and  _509
REMARK  200  A    between atoms: _511  and  _513
REMARK  201  A    between atoms: _513  and  _514
REMARK  202  A    between atoms: _513  and  _516
REMARK  203  A    between atoms: _516  and  _517
REMARK  204  A    between atoms: _522  and  _524
REMARK  205  A    between atoms: _524  and  _525
REMARK  206  A    between atoms: _524  and  _527
REMARK  207  A    between atoms: _527  and  _528
REMARK  208  A    between atoms: _538  and  _540
REMARK  209  A    between atoms: _540  and  _541
REMARK  210  A    between atoms: _540  and  _543
REMARK  211  A    between atoms: _543  and  _544
REMARK  212  A    between atoms: _547  and  _549
REMARK  213  A    between atoms: _549  and  _550
REMARK  214  A    between atoms: _549  and  _552
REMARK  215  A    between atoms: _552  and  _553
REMARK  216  A    between atoms: _558  and  _559
REMARK  217  A    between atoms: _561  and  _563
REMARK  218  A    between atoms: _563  and  _564
REMARK  219  A    between atoms: _563  and  _566
REMARK  220  A    between atoms: _566  and  _567
REMARK  221  A    between atoms: _570  and  _572
REMARK  222  A    between atoms: _572  and  _573
REMARK  223  A    between atoms: _572  and  _575
REMARK  224  A    between atoms: _575  and  _576
REMARK  225  A    between atoms: _576  and  _577
REMARK  226  A    between atoms: _580  and  _582
REMARK  227  A    between atoms: _582  and  _583
REMARK  228  A    between atoms: _582  and  _585
REMARK  229  A    between atoms: _585  and  _586
REMARK  230  A    between atoms: _591  and  _593
REMARK  231  A    between atoms: _593  and  _594
REMARK  232  A    between atoms: _596  and  _598
REMARK  233  A    between atoms: _598  and  _599
REMARK  234  A    between atoms: _598  and  _601
REMARK  235  A    between atoms: _601  and  _602
REMARK  236  A    between atoms: _602  and  _603
REMARK  237  A    between atoms: _605  and  _607
REMARK  238  A    between atoms: _607  and  _608
REMARK  239  A    between atoms: _607  and  _610
REMARK  240  A    between atoms: _610  and  _611
REMARK  241  A    between atoms: _614  and  _616
REMARK  242  A    between atoms: _616  and  _617
REMARK  243  A    between atoms: _616  and  _619
REMARK  244  A    between atoms: _619  and  _620
REMARK  245  A    between atoms: _630  and  _632
REMARK  246  A    between atoms: _632  and  _633
REMARK  247  A    between atoms: _632  and  _635
REMARK  248  A    between atoms: _635  and  _636
REMARK  249  A    between atoms: _638  and  _640
REMARK  250  A    between atoms: _640  and  _641
REMARK  251  A    between atoms: _640  and  _643
REMARK  252  A    between atoms: _643  and  _644
REMARK  253  A    between atoms: _649  and  _651
REMARK  254  A    between atoms: _651  and  _652
REMARK  255  A    between atoms: _651  and  _654
REMARK  256  A    between atoms: _654  and  _655
REMARK  257  A    between atoms: _661  and  _663
REMARK  258  A    between atoms: _663  and  _664
REMARK  259  A    between atoms: _663  and  _666
REMARK  260  A    between atoms: _666  and  _667
REMARK  261  A    between atoms: _667  and  _668
REMARK  262  A    between atoms: _671  and  _673
REMARK  263  A    between atoms: _673  and  _674
REMARK  264  A    between atoms: _673  and  _676
REMARK  265  A    between atoms: _676  and  _677
REMARK  266  A    between atoms: _687  and  _689
REMARK  267  A    between atoms: _689  and  _690
REMARK  268  A    between atoms: _689  and  _692
REMARK  269  A    between atoms: _692  and  _693
REMARK  270  A    between atoms: _696  and  _698
REMARK  271  A    between atoms: _698  and  _699
REMARK  272  A    between atoms: _698  and  _701
REMARK  273  A    between atoms: _701  and  _702
REMARK  274  A    between atoms: _704  and  _706
REMARK  275  A    between atoms: _706  and  _707
REMARK  276  A    between atoms: _706  and  _709
REMARK  277  A    between atoms: _709  and  _710
REMARK  278  A    between atoms: _712  and  _714
REMARK  279  A    between atoms: _714  and  _715
REMARK  280  A    between atoms: _714  and  _717
REMARK  281  A    between atoms: _717  and  _718
REMARK                            x       y       z     vdW  Elec       q    Type
REMARK                         _______ _______ _______ _____ _____    ______ ____
ROOT
ATOM      1  O   HOH     1      -4.224   8.453  56.319  0.00  0.00    +0.000 OA
ENDROOT
TORSDOF 0
