REMARK  Name = ../refined-set-2016/4ruy/4ruy_pocket.pdb
REMARK  147 active torsions:
REMARK  status: ('A' for Active; 'I' for Inactive)
REMARK    1  A    between atoms: _1  and  _3
REMARK    2  A    between atoms: _3  and  _4
REMARK    3  A    between atoms: _3  and  _6
REMARK    4  A    between atoms: _6  and  _7
REMARK    5  A    between atoms: _17  and  _19
REMARK    6  A    between atoms: _19  and  _20
REMARK    7  A    between atoms: _19  and  _22
REMARK    8  A    between atoms: _22  and  _23
REMARK    9  A    between atoms: _28  and  _29
REMARK   10  A    between atoms: _31  and  _33
REMARK   11  A    between atoms: _33  and  _34
REMARK   12  A    between atoms: _33  and  _36
REMARK   13  A    between atoms: _36  and  _37
REMARK   14  A    between atoms: _40  and  _41
REMARK   15  A    between atoms: _46  and  _48
REMARK   16  A    between atoms: _48  and  _49
REMARK   17  A    between atoms: _48  and  _51
REMARK   18  A    between atoms: _51  and  _52
REMARK   19  A    between atoms: _57  and  _59
REMARK   20  A    between atoms: _59  and  _60
REMARK   21  A    between atoms: _63  and  _65
REMARK   22  A    between atoms: _65  and  _66
REMARK   23  A    between atoms: _65  and  _68
REMARK   24  A    between atoms: _68  and  _69
REMARK   25  A    between atoms: _74  and  _76
REMARK   26  A    between atoms: _76  and  _77
REMARK   27  A    between atoms: _76  and  _79
REMARK   28  A    between atoms: _79  and  _80
REMARK   29  A    between atoms: _83  and  _85
REMARK   30  A    between atoms: _85  and  _86
REMARK   31  A    between atoms: _85  and  _88
REMARK   32  A    between atoms: _88  and  _89
REMARK   33  A    between atoms: _89  and  _90
REMARK   34  A    between atoms: _95  and  _97
REMARK   35  A    between atoms: _97  and  _98
REMARK   36  A    between atoms: _97  and  _100
REMARK   37  A    between atoms: _100  and  _101
REMARK   38  A    between atoms: _107  and  _109
REMARK   39  A    between atoms: _120  and  _123
REMARK   40  A    between atoms: _123  and  _124
REMARK   41  A    between atoms: _132  and  _133
REMARK   42  A    between atoms: _141  and  _143
REMARK   43  A    between atoms: _143  and  _144
REMARK   44  A    between atoms: _143  and  _146
REMARK   45  A    between atoms: _146  and  _147
REMARK   46  A    between atoms: _147  and  _148
REMARK   47  A    between atoms: _151  and  _153
REMARK   48  A    between atoms: _153  and  _154
REMARK   49  A    between atoms: _153  and  _156
REMARK   50  A    between atoms: _156  and  _157
REMARK   51  A    between atoms: _162  and  _164
REMARK   52  A    between atoms: _164  and  _165
REMARK   53  A    between atoms: _164  and  _167
REMARK   54  A    between atoms: _167  and  _168
REMARK   55  A    between atoms: _168  and  _169
REMARK   56  A    between atoms: _172  and  _174
REMARK   57  A    between atoms: _174  and  _175
REMARK   58  A    between atoms: _174  and  _177
REMARK   59  A    between atoms: _177  and  _178
REMARK   60  A    between atoms: _181  and  _183
REMARK   61  A    between atoms: _183  and  _184
REMARK   62  A    between atoms: _183  and  _186
REMARK   63  A    between atoms: _186  and  _187
REMARK   64  A    between atoms: _188  and  ZN_413
REMARK   65  A    between atoms: _192  and  _194
REMARK   66  A    between atoms: _194  and  _195
REMARK   67  A    between atoms: _194  and  _197
REMARK   68  A    between atoms: _197  and  _198
REMARK   69  A    between atoms: _201  and  _203
REMARK   70  A    between atoms: _203  and  _204
REMARK   71  A    between atoms: _203  and  _206
REMARK   72  A    between atoms: _209  and  _211
REMARK   73  A    between atoms: _211  and  _212
REMARK   74  A    between atoms: _211  and  _214
REMARK   75  A    between atoms: _214  and  _215
REMARK   76  A    between atoms: _220  and  _222
REMARK   77  A    between atoms: _222  and  _223
REMARK   78  A    between atoms: _222  and  _225
REMARK   79  A    between atoms: _225  and  _226
REMARK   80  A    between atoms: _232  and  _234
REMARK   81  A    between atoms: _234  and  _235
REMARK   82  A    between atoms: _237  and  _239
REMARK   83  A    between atoms: _239  and  _240
REMARK   84  A    between atoms: _239  and  _242
REMARK   85  A    between atoms: _245  and  _247
REMARK   86  A    between atoms: _247  and  _248
REMARK   87  A    between atoms: _247  and  _250
REMARK   88  A    between atoms: _250  and  _251
REMARK   89  A    between atoms: _254  and  _256
REMARK   90  A    between atoms: _256  and  _257
REMARK   91  A    between atoms: _260  and  _262
REMARK   92  A    between atoms: _262  and  _263
REMARK   93  A    between atoms: _262  and  _265
REMARK   94  A    between atoms: _268  and  _270
REMARK   95  A    between atoms: _270  and  _271
REMARK   96  A    between atoms: _270  and  _273
REMARK   97  A    between atoms: _273  and  _274
REMARK   98  A    between atoms: _277  and  _279
REMARK   99  A    between atoms: _279  and  _280
REMARK  100  A    between atoms: _282  and  _284
REMARK  101  A    between atoms: _284  and  _285
REMARK  102  A    between atoms: _287  and  _289
REMARK  103  A    between atoms: _289  and  _290
REMARK  104  A    between atoms: _289  and  _292
REMARK  105  A    between atoms: _292  and  _293
REMARK  106  A    between atoms: _295  and  _297
REMARK  107  A    between atoms: _297  and  _298
REMARK  108  A    between atoms: _297  and  _300
REMARK  109  A    between atoms: _300  and  _301
REMARK  110  A    between atoms: _304  and  _306
REMARK  111  A    between atoms: _306  and  _307
REMARK  112  A    between atoms: _306  and  _309
REMARK  113  A    between atoms: _309  and  _310
REMARK  114  A    between atoms: _313  and  _315
REMARK  115  A    between atoms: _315  and  _316
REMARK  116  A    between atoms: _315  and  _318
REMARK  117  A    between atoms: _318  and  _319
REMARK  118  A    between atoms: _323  and  _324
REMARK  119  A    between atoms: _330  and  _331
REMARK  120  A    between atoms: _336  and  _338
REMARK  121  A    between atoms: _338  and  _339
REMARK  122  A    between atoms: _338  and  _341
REMARK  123  A    between atoms: _341  and  _342
REMARK  124  A    between atoms: _345  and  _347
REMARK  125  A    between atoms: _347  and  _348
REMARK  126  A    between atoms: _347  and  _350
REMARK  127  A    between atoms: _350  and  _351
REMARK  128  A    between atoms: _354  and  _356
REMARK  129  A    between atoms: _356  and  _357
REMARK  130  A    between atoms: _356  and  _359
REMARK  131  A    between atoms: _361  and  _363
REMARK  132  A    between atoms: _363  and  _364
REMARK  133  A    between atoms: _363  and  _366
REMARK  134  A    between atoms: _369  and  _371
REMARK  135  A    between atoms: _371  and  _372
REMARK  136  A    between atoms: _371  and  _374
REMARK  137  A    between atoms: _374  and  _375
REMARK  138  A    between atoms: _385  and  _387
REMARK  139  A    between atoms: _387  and  _388
REMARK  140  A    between atoms: _387  and  _390
REMARK  141  A    between atoms: _390  and  _391
REMARK  142  A    between atoms: _396  and  _398
REMARK  143  A    between atoms: _398  and  _399
REMARK  144  A    between atoms: _398  and  _401
REMARK  145  A    between atoms: _401  and  _402
REMARK  146  A    between atoms: _402  and  _403
REMARK  147  A    between atoms: _403  and  _404
REMARK                            x       y       z     vdW  Elec       q    Type
REMARK                         _______ _______ _______ _____ _____    ______ ____
ROOT
ATOM      1  CG  TRP A   1       5.833   0.172  12.099  0.00  0.00    -0.002 A 
ATOM      2  CD2 TRP A   1       4.480  -0.286  12.033  0.00  0.00    +0.013 A 
ATOM      3  CE3 TRP A   1       3.867  -1.522  12.241  0.00  0.00    +0.001 A 
ATOM      4  CZ3 TRP A   1       2.500  -1.617  12.086  0.00  0.00    +0.000 A 
ATOM      5  CH2 TRP A   1       1.726  -0.490  11.742  0.00  0.00    +0.001 A 
ATOM      6  CZ2 TRP A   1       2.300   0.733  11.540  0.00  0.00    +0.017 A 
ATOM      7  CE2 TRP A   1       3.682   0.824  11.681  0.00  0.00    +0.056 A 
ATOM      8  NE1 TRP A   1       4.513   1.906  11.549  0.00  0.00    -0.352 N 
ATOM      9  HE1 TRP A   1       4.215   2.871  11.301  0.00  0.00    +0.166 HD
ATOM     10  CD1 TRP A   1       5.803   1.507  11.798  0.00  0.00    +0.068 A 
ENDROOT
BRANCH   1  11
ATOM     11  CB  TRP A   1       7.035  -0.648  12.438  0.00  0.00    +0.053 C 
BRANCH  11  12
ATOM     12  CA  TRP A   1       7.682  -1.317  11.224  0.00  0.00    +0.137 C 
BRANCH  12  13
ATOM     13  N   TRP A   1       8.319  -0.326  10.368  0.00  0.00    -0.239 NA
ATOM     14  H   TRP A   1       8.135   0.685  10.530  0.00  0.00    +0.142 HD
ENDBRANCH  12  13
BRANCH  12  15
ATOM     15  C   TRP A   1       6.644  -2.119  10.449  0.00  0.00    +0.224 C 
ATOM     16  O   TRP A   1       6.085  -1.650   9.452  0.00  0.00    -0.287 OA
ENDBRANCH  12  15
ENDBRANCH  11  12
ENDBRANCH   1  11
TORSDOF 4
REMARK  Name = ../refined-set-2016/4ruy/4ruy_pocket.pdb
REMARK  147 active torsions:
REMARK  status: ('A' for Active; 'I' for Inactive)
REMARK    1  A    between atoms: _1  and  _3
REMARK    2  A    between atoms: _3  and  _4
REMARK    3  A    between atoms: _3  and  _6
REMARK    4  A    between atoms: _6  and  _7
REMARK    5  A    between atoms: _17  and  _19
REMARK    6  A    between atoms: _19  and  _20
REMARK    7  A    between atoms: _19  and  _22
REMARK    8  A    between atoms: _22  and  _23
REMARK    9  A    between atoms: _28  and  _29
REMARK   10  A    between atoms: _31  and  _33
REMARK   11  A    between atoms: _33  and  _34
REMARK   12  A    between atoms: _33  and  _36
REMARK   13  A    between atoms: _36  and  _37
REMARK   14  A    between atoms: _40  and  _41
REMARK   15  A    between atoms: _46  and  _48
REMARK   16  A    between atoms: _48  and  _49
REMARK   17  A    between atoms: _48  and  _51
REMARK   18  A    between atoms: _51  and  _52
REMARK   19  A    between atoms: _57  and  _59
REMARK   20  A    between atoms: _59  and  _60
REMARK   21  A    between atoms: _63  and  _65
REMARK   22  A    between atoms: _65  and  _66
REMARK   23  A    between atoms: _65  and  _68
REMARK   24  A    between atoms: _68  and  _69
REMARK   25  A    between atoms: _74  and  _76
REMARK   26  A    between atoms: _76  and  _77
REMARK   27  A    between atoms: _76  and  _79
REMARK   28  A    between atoms: _79  and  _80
REMARK   29  A    between atoms: _83  and  _85
REMARK   30  A    between atoms: _85  and  _86
REMARK   31  A    between atoms: _85  and  _88
REMARK   32  A    between atoms: _88  and  _89
REMARK   33  A    between atoms: _89  and  _90
REMARK   34  A    between atoms: _95  and  _97
REMARK   35  A    between atoms: _97  and  _98
REMARK   36  A    between atoms: _97  and  _100
REMARK   37  A    between atoms: _100  and  _101
REMARK   38  A    between atoms: _107  and  _109
REMARK   39  A    between atoms: _120  and  _123
REMARK   40  A    between atoms: _123  and  _124
REMARK   41  A    between atoms: _132  and  _133
REMARK   42  A    between atoms: _141  and  _143
REMARK   43  A    between atoms: _143  and  _144
REMARK   44  A    between atoms: _143  and  _146
REMARK   45  A    between atoms: _146  and  _147
REMARK   46  A    between atoms: _147  and  _148
REMARK   47  A    between atoms: _151  and  _153
REMARK   48  A    between atoms: _153  and  _154
REMARK   49  A    between atoms: _153  and  _156
REMARK   50  A    between atoms: _156  and  _157
REMARK   51  A    between atoms: _162  and  _164
REMARK   52  A    between atoms: _164  and  _165
REMARK   53  A    between atoms: _164  and  _167
REMARK   54  A    between atoms: _167  and  _168
REMARK   55  A    between atoms: _168  and  _169
REMARK   56  A    between atoms: _172  and  _174
REMARK   57  A    between atoms: _174  and  _175
REMARK   58  A    between atoms: _174  and  _177
REMARK   59  A    between atoms: _177  and  _178
REMARK   60  A    between atoms: _181  and  _183
REMARK   61  A    between atoms: _183  and  _184
REMARK   62  A    between atoms: _183  and  _186
REMARK   63  A    between atoms: _186  and  _187
REMARK   64  A    between atoms: _188  and  ZN_413
REMARK   65  A    between atoms: _192  and  _194
REMARK   66  A    between atoms: _194  and  _195
REMARK   67  A    between atoms: _194  and  _197
REMARK   68  A    between atoms: _197  and  _198
REMARK   69  A    between atoms: _201  and  _203
REMARK   70  A    between atoms: _203  and  _204
REMARK   71  A    between atoms: _203  and  _206
REMARK   72  A    between atoms: _209  and  _211
REMARK   73  A    between atoms: _211  and  _212
REMARK   74  A    between atoms: _211  and  _214
REMARK   75  A    between atoms: _214  and  _215
REMARK   76  A    between atoms: _220  and  _222
REMARK   77  A    between atoms: _222  and  _223
REMARK   78  A    between atoms: _222  and  _225
REMARK   79  A    between atoms: _225  and  _226
REMARK   80  A    between atoms: _232  and  _234
REMARK   81  A    between atoms: _234  and  _235
REMARK   82  A    between atoms: _237  and  _239
REMARK   83  A    between atoms: _239  and  _240
REMARK   84  A    between atoms: _239  and  _242
REMARK   85  A    between atoms: _245  and  _247
REMARK   86  A    between atoms: _247  and  _248
REMARK   87  A    between atoms: _247  and  _250
REMARK   88  A    between atoms: _250  and  _251
REMARK   89  A    between atoms: _254  and  _256
REMARK   90  A    between atoms: _256  and  _257
REMARK   91  A    between atoms: _260  and  _262
REMARK   92  A    between atoms: _262  and  _263
REMARK   93  A    between atoms: _262  and  _265
REMARK   94  A    between atoms: _268  and  _270
REMARK   95  A    between atoms: _270  and  _271
REMARK   96  A    between atoms: _270  and  _273
REMARK   97  A    between atoms: _273  and  _274
REMARK   98  A    between atoms: _277  and  _279
REMARK   99  A    between atoms: _279  and  _280
REMARK  100  A    between atoms: _282  and  _284
REMARK  101  A    between atoms: _284  and  _285
REMARK  102  A    between atoms: _287  and  _289
REMARK  103  A    between atoms: _289  and  _290
REMARK  104  A    between atoms: _289  and  _292
REMARK  105  A    between atoms: _292  and  _293
REMARK  106  A    between atoms: _295  and  _297
REMARK  107  A    between atoms: _297  and  _298
REMARK  108  A    between atoms: _297  and  _300
REMARK  109  A    between atoms: _300  and  _301
REMARK  110  A    between atoms: _304  and  _306
REMARK  111  A    between atoms: _306  and  _307
REMARK  112  A    between atoms: _306  and  _309
REMARK  113  A    between atoms: _309  and  _310
REMARK  114  A    between atoms: _313  and  _315
REMARK  115  A    between atoms: _315  and  _316
REMARK  116  A    between atoms: _315  and  _318
REMARK  117  A    between atoms: _318  and  _319
REMARK  118  A    between atoms: _323  and  _324
REMARK  119  A    between atoms: _330  and  _331
REMARK  120  A    between atoms: _336  and  _338
REMARK  121  A    between atoms: _338  and  _339
REMARK  122  A    between atoms: _338  and  _341
REMARK  123  A    between atoms: _341  and  _342
REMARK  124  A    between atoms: _345  and  _347
REMARK  125  A    between atoms: _347  and  _348
REMARK  126  A    between atoms: _347  and  _350
REMARK  127  A    between atoms: _350  and  _351
REMARK  128  A    between atoms: _354  and  _356
REMARK  129  A    between atoms: _356  and  _357
REMARK  130  A    between atoms: _356  and  _359
REMARK  131  A    between atoms: _361  and  _363
REMARK  132  A    between atoms: _363  and  _364
REMARK  133  A    between atoms: _363  and  _366
REMARK  134  A    between atoms: _369  and  _371
REMARK  135  A    between atoms: _371  and  _372
REMARK  136  A    between atoms: _371  and  _374
REMARK  137  A    between atoms: _374  and  _375
REMARK  138  A    between atoms: _385  and  _387
REMARK  139  A    between atoms: _387  and  _388
REMARK  140  A    between atoms: _387  and  _390
REMARK  141  A    between atoms: _390  and  _391
REMARK  142  A    between atoms: _396  and  _398
REMARK  143  A    between atoms: _398  and  _399
REMARK  144  A    between atoms: _398  and  _401
REMARK  145  A    between atoms: _401  and  _402
REMARK  146  A    between atoms: _402  and  _403
REMARK  147  A    between atoms: _403  and  _404
REMARK                            x       y       z     vdW  Elec       q    Type
REMARK                         _______ _______ _______ _____ _____    ______ ____
ROOT
ATOM      1  CG  TYR A   1       1.977  -6.904  11.739  0.00  0.00    -0.020 A 
ATOM      2  CD2 TYR A   1       1.583  -6.899  13.069  0.00  0.00    -0.001 A 
ATOM      3  CE2 TYR A   1       0.752  -5.920  13.567  0.00  0.00    +0.036 A 
ATOM      4  CZ  TYR A   1       0.298  -4.929  12.723  0.00  0.00    +0.134 A 
ATOM      5  CE1 TYR A   1       0.676  -4.908  11.401  0.00  0.00    +0.036 A 
ATOM      6  CD1 TYR A   1       1.509  -5.895  10.912  0.00  0.00    -0.001 A 
ENDROOT
BRANCH   4   7
ATOM      7  OH  TYR A   1      -0.531  -3.928  13.164  0.00  0.00    -0.506 OA
ATOM      8  HH  TYR A   1      -0.724  -4.061  14.126  0.00  0.00    +0.292 HD
ENDBRANCH   4   7
BRANCH   1   9
ATOM      9  CB  TYR A   1       2.888  -7.985  11.210  0.00  0.00    +0.051 C 
BRANCH   9  10
ATOM     10  CA  TYR A   1       4.368  -7.685  11.427  0.00  0.00    +0.137 C 
BRANCH  10  11
ATOM     11  N   TYR A   1       4.751  -6.500  10.669  0.00  0.00    -0.239 NA
ATOM     12  H   TYR A   1       4.796  -6.557   9.632  0.00  0.00    +0.142 HD
ENDBRANCH  10  11
BRANCH  10  13
ATOM     13  C   TYR A   1       5.216  -8.904  11.067  0.00  0.00    +0.224 C 
ATOM     14  O   TYR A   1       4.884 -10.032  11.437  0.00  0.00    -0.287 OA
ENDBRANCH  10  13
ENDBRANCH   9  10
ENDBRANCH   1   9
TORSDOF 5
REMARK  Name = ../refined-set-2016/4ruy/4ruy_pocket.pdb
REMARK  147 active torsions:
REMARK  status: ('A' for Active; 'I' for Inactive)
REMARK    1  A    between atoms: _1  and  _3
REMARK    2  A    between atoms: _3  and  _4
REMARK    3  A    between atoms: _3  and  _6
REMARK    4  A    between atoms: _6  and  _7
REMARK    5  A    between atoms: _17  and  _19
REMARK    6  A    between atoms: _19  and  _20
REMARK    7  A    between atoms: _19  and  _22
REMARK    8  A    between atoms: _22  and  _23
REMARK    9  A    between atoms: _28  and  _29
REMARK   10  A    between atoms: _31  and  _33
REMARK   11  A    between atoms: _33  and  _34
REMARK   12  A    between atoms: _33  and  _36
REMARK   13  A    between atoms: _36  and  _37
REMARK   14  A    between atoms: _40  and  _41
REMARK   15  A    between atoms: _46  and  _48
REMARK   16  A    between atoms: _48  and  _49
REMARK   17  A    between atoms: _48  and  _51
REMARK   18  A    between atoms: _51  and  _52
REMARK   19  A    between atoms: _57  and  _59
REMARK   20  A    between atoms: _59  and  _60
REMARK   21  A    between atoms: _63  and  _65
REMARK   22  A    between atoms: _65  and  _66
REMARK   23  A    between atoms: _65  and  _68
REMARK   24  A    between atoms: _68  and  _69
REMARK   25  A    between atoms: _74  and  _76
REMARK   26  A    between atoms: _76  and  _77
REMARK   27  A    between atoms: _76  and  _79
REMARK   28  A    between atoms: _79  and  _80
REMARK   29  A    between atoms: _83  and  _85
REMARK   30  A    between atoms: _85  and  _86
REMARK   31  A    between atoms: _85  and  _88
REMARK   32  A    between atoms: _88  and  _89
REMARK   33  A    between atoms: _89  and  _90
REMARK   34  A    between atoms: _95  and  _97
REMARK   35  A    between atoms: _97  and  _98
REMARK   36  A    between atoms: _97  and  _100
REMARK   37  A    between atoms: _100  and  _101
REMARK   38  A    between atoms: _107  and  _109
REMARK   39  A    between atoms: _120  and  _123
REMARK   40  A    between atoms: _123  and  _124
REMARK   41  A    between atoms: _132  and  _133
REMARK   42  A    between atoms: _141  and  _143
REMARK   43  A    between atoms: _143  and  _144
REMARK   44  A    between atoms: _143  and  _146
REMARK   45  A    between atoms: _146  and  _147
REMARK   46  A    between atoms: _147  and  _148
REMARK   47  A    between atoms: _151  and  _153
REMARK   48  A    between atoms: _153  and  _154
REMARK   49  A    between atoms: _153  and  _156
REMARK   50  A    between atoms: _156  and  _157
REMARK   51  A    between atoms: _162  and  _164
REMARK   52  A    between atoms: _164  and  _165
REMARK   53  A    between atoms: _164  and  _167
REMARK   54  A    between atoms: _167  and  _168
REMARK   55  A    between atoms: _168  and  _169
REMARK   56  A    between atoms: _172  and  _174
REMARK   57  A    between atoms: _174  and  _175
REMARK   58  A    between atoms: _174  and  _177
REMARK   59  A    between atoms: _177  and  _178
REMARK   60  A    between atoms: _181  and  _183
REMARK   61  A    between atoms: _183  and  _184
REMARK   62  A    between atoms: _183  and  _186
REMARK   63  A    between atoms: _186  and  _187
REMARK   64  A    between atoms: _188  and  ZN_413
REMARK   65  A    between atoms: _192  and  _194
REMARK   66  A    between atoms: _194  and  _195
REMARK   67  A    between atoms: _194  and  _197
REMARK   68  A    between atoms: _197  and  _198
REMARK   69  A    between atoms: _201  and  _203
REMARK   70  A    between atoms: _203  and  _204
REMARK   71  A    between atoms: _203  and  _206
REMARK   72  A    between atoms: _209  and  _211
REMARK   73  A    between atoms: _211  and  _212
REMARK   74  A    between atoms: _211  and  _214
REMARK   75  A    between atoms: _214  and  _215
REMARK   76  A    between atoms: _220  and  _222
REMARK   77  A    between atoms: _222  and  _223
REMARK   78  A    between atoms: _222  and  _225
REMARK   79  A    between atoms: _225  and  _226
REMARK   80  A    between atoms: _232  and  _234
REMARK   81  A    between atoms: _234  and  _235
REMARK   82  A    between atoms: _237  and  _239
REMARK   83  A    between atoms: _239  and  _240
REMARK   84  A    between atoms: _239  and  _242
REMARK   85  A    between atoms: _245  and  _247
REMARK   86  A    between atoms: _247  and  _248
REMARK   87  A    between atoms: _247  and  _250
REMARK   88  A    between atoms: _250  and  _251
REMARK   89  A    between atoms: _254  and  _256
REMARK   90  A    between atoms: _256  and  _257
REMARK   91  A    between atoms: _260  and  _262
REMARK   92  A    between atoms: _262  and  _263
REMARK   93  A    between atoms: _262  and  _265
REMARK   94  A    between atoms: _268  and  _270
REMARK   95  A    between atoms: _270  and  _271
REMARK   96  A    between atoms: _270  and  _273
REMARK   97  A    between atoms: _273  and  _274
REMARK   98  A    between atoms: _277  and  _279
REMARK   99  A    between atoms: _279  and  _280
REMARK  100  A    between atoms: _282  and  _284
REMARK  101  A    between atoms: _284  and  _285
REMARK  102  A    between atoms: _287  and  _289
REMARK  103  A    between atoms: _289  and  _290
REMARK  104  A    between atoms: _289  and  _292
REMARK  105  A    between atoms: _292  and  _293
REMARK  106  A    between atoms: _295  and  _297
REMARK  107  A    between atoms: _297  and  _298
REMARK  108  A    between atoms: _297  and  _300
REMARK  109  A    between atoms: _300  and  _301
REMARK  110  A    between atoms: _304  and  _306
REMARK  111  A    between atoms: _306  and  _307
REMARK  112  A    between atoms: _306  and  _309
REMARK  113  A    between atoms: _309  and  _310
REMARK  114  A    between atoms: _313  and  _315
REMARK  115  A    between atoms: _315  and  _316
REMARK  116  A    between atoms: _315  and  _318
REMARK  117  A    between atoms: _318  and  _319
REMARK  118  A    between atoms: _323  and  _324
REMARK  119  A    between atoms: _330  and  _331
REMARK  120  A    between atoms: _336  and  _338
REMARK  121  A    between atoms: _338  and  _339
REMARK  122  A    between atoms: _338  and  _341
REMARK  123  A    between atoms: _341  and  _342
REMARK  124  A    between atoms: _345  and  _347
REMARK  125  A    between atoms: _347  and  _348
REMARK  126  A    between atoms: _347  and  _350
REMARK  127  A    between atoms: _350  and  _351
REMARK  128  A    between atoms: _354  and  _356
REMARK  129  A    between atoms: _356  and  _357
REMARK  130  A    between atoms: _356  and  _359
REMARK  131  A    between atoms: _361  and  _363
REMARK  132  A    between atoms: _363  and  _364
REMARK  133  A    between atoms: _363  and  _366
REMARK  134  A    between atoms: _369  and  _371
REMARK  135  A    between atoms: _371  and  _372
REMARK  136  A    between atoms: _371  and  _374
REMARK  137  A    between atoms: _374  and  _375
REMARK  138  A    between atoms: _385  and  _387
REMARK  139  A    between atoms: _387  and  _388
REMARK  140  A    between atoms: _387  and  _390
REMARK  141  A    between atoms: _390  and  _391
REMARK  142  A    between atoms: _396  and  _398
REMARK  143  A    between atoms: _398  and  _399
REMARK  144  A    between atoms: _398  and  _401
REMARK  145  A    between atoms: _401  and  _402
REMARK  146  A    between atoms: _402  and  _403
REMARK  147  A    between atoms: _403  and  _404
REMARK                            x       y       z     vdW  Elec       q    Type
REMARK                         _______ _______ _______ _____ _____    ______ ____
ROOT
ATOM      1  C   SER A   1      -2.288  -3.021  23.046  0.00  0.00    +0.244 C 
ATOM      2  N   PRO A   2      -2.935  -4.164  22.786  0.00  0.00    -0.273 N 
ATOM      3  CA  PRO A   2      -4.111  -4.686  23.483  0.00  0.00    +0.140 C 
ATOM      4  CB  PRO A   2      -4.626  -5.743  22.502  0.00  0.00    +0.030 C 
ATOM      5  CG  PRO A   2      -3.363  -6.287  21.882  0.00  0.00    +0.024 C 
ATOM      6  CD  PRO A   2      -2.462  -5.095  21.739  0.00  0.00    +0.094 C 
ATOM      7  O   SER A   1      -1.329  -2.649  22.375  0.00  0.00    -0.273 OA
ENDROOT
BRANCH   3   8
ATOM      8  C   PRO A   2      -3.698  -5.353  24.790  0.00  0.00    +0.227 C 
ATOM      9  O   PRO A   2      -2.512  -5.393  25.136  0.00  0.00    -0.286 OA
ENDBRANCH   3   8
BRANCH   1  10
ATOM     10  CA  SER A   1      -2.818  -2.155  24.189  0.00  0.00    +0.175 C 
BRANCH  10  11
ATOM     11  N   SER A   1      -1.768  -1.272  24.665  0.00  0.00    -0.236 NA
ATOM     12  H   SER A   1      -1.291  -0.653  23.978  0.00  0.00    +0.142 HD
ENDBRANCH  10  11
BRANCH  10  13
ATOM     13  CB  SER A   1      -3.981  -1.316  23.669  0.00  0.00    +0.163 C 
BRANCH  13  14
ATOM     14  OG  SER A   1      -4.584  -0.566  24.708  0.00  0.00    -0.380 OA
ATOM     15  H   SER A   1      -4.927  -1.183  25.402  0.00  0.00    +0.211 HD
ENDBRANCH  13  14
ENDBRANCH  10  13
ENDBRANCH   1  10
TORSDOF 5
REMARK  Name = ../refined-set-2016/4ruy/4ruy_pocket.pdb
REMARK  147 active torsions:
REMARK  status: ('A' for Active; 'I' for Inactive)
REMARK    1  A    between atoms: _1  and  _3
REMARK    2  A    between atoms: _3  and  _4
REMARK    3  A    between atoms: _3  and  _6
REMARK    4  A    between atoms: _6  and  _7
REMARK    5  A    between atoms: _17  and  _19
REMARK    6  A    between atoms: _19  and  _20
REMARK    7  A    between atoms: _19  and  _22
REMARK    8  A    between atoms: _22  and  _23
REMARK    9  A    between atoms: _28  and  _29
REMARK   10  A    between atoms: _31  and  _33
REMARK   11  A    between atoms: _33  and  _34
REMARK   12  A    between atoms: _33  and  _36
REMARK   13  A    between atoms: _36  and  _37
REMARK   14  A    between atoms: _40  and  _41
REMARK   15  A    between atoms: _46  and  _48
REMARK   16  A    between atoms: _48  and  _49
REMARK   17  A    between atoms: _48  and  _51
REMARK   18  A    between atoms: _51  and  _52
REMARK   19  A    between atoms: _57  and  _59
REMARK   20  A    between atoms: _59  and  _60
REMARK   21  A    between atoms: _63  and  _65
REMARK   22  A    between atoms: _65  and  _66
REMARK   23  A    between atoms: _65  and  _68
REMARK   24  A    between atoms: _68  and  _69
REMARK   25  A    between atoms: _74  and  _76
REMARK   26  A    between atoms: _76  and  _77
REMARK   27  A    between atoms: _76  and  _79
REMARK   28  A    between atoms: _79  and  _80
REMARK   29  A    between atoms: _83  and  _85
REMARK   30  A    between atoms: _85  and  _86
REMARK   31  A    between atoms: _85  and  _88
REMARK   32  A    between atoms: _88  and  _89
REMARK   33  A    between atoms: _89  and  _90
REMARK   34  A    between atoms: _95  and  _97
REMARK   35  A    between atoms: _97  and  _98
REMARK   36  A    between atoms: _97  and  _100
REMARK   37  A    between atoms: _100  and  _101
REMARK   38  A    between atoms: _107  and  _109
REMARK   39  A    between atoms: _120  and  _123
REMARK   40  A    between atoms: _123  and  _124
REMARK   41  A    between atoms: _132  and  _133
REMARK   42  A    between atoms: _141  and  _143
REMARK   43  A    between atoms: _143  and  _144
REMARK   44  A    between atoms: _143  and  _146
REMARK   45  A    between atoms: _146  and  _147
REMARK   46  A    between atoms: _147  and  _148
REMARK   47  A    between atoms: _151  and  _153
REMARK   48  A    between atoms: _153  and  _154
REMARK   49  A    between atoms: _153  and  _156
REMARK   50  A    between atoms: _156  and  _157
REMARK   51  A    between atoms: _162  and  _164
REMARK   52  A    between atoms: _164  and  _165
REMARK   53  A    between atoms: _164  and  _167
REMARK   54  A    between atoms: _167  and  _168
REMARK   55  A    between atoms: _168  and  _169
REMARK   56  A    between atoms: _172  and  _174
REMARK   57  A    between atoms: _174  and  _175
REMARK   58  A    between atoms: _174  and  _177
REMARK   59  A    between atoms: _177  and  _178
REMARK   60  A    between atoms: _181  and  _183
REMARK   61  A    between atoms: _183  and  _184
REMARK   62  A    between atoms: _183  and  _186
REMARK   63  A    between atoms: _186  and  _187
REMARK   64  A    between atoms: _188  and  ZN_413
REMARK   65  A    between atoms: _192  and  _194
REMARK   66  A    between atoms: _194  and  _195
REMARK   67  A    between atoms: _194  and  _197
REMARK   68  A    between atoms: _197  and  _198
REMARK   69  A    between atoms: _201  and  _203
REMARK   70  A    between atoms: _203  and  _204
REMARK   71  A    between atoms: _203  and  _206
REMARK   72  A    between atoms: _209  and  _211
REMARK   73  A    between atoms: _211  and  _212
REMARK   74  A    between atoms: _211  and  _214
REMARK   75  A    between atoms: _214  and  _215
REMARK   76  A    between atoms: _220  and  _222
REMARK   77  A    between atoms: _222  and  _223
REMARK   78  A    between atoms: _222  and  _225
REMARK   79  A    between atoms: _225  and  _226
REMARK   80  A    between atoms: _232  and  _234
REMARK   81  A    between atoms: _234  and  _235
REMARK   82  A    between atoms: _237  and  _239
REMARK   83  A    between atoms: _239  and  _240
REMARK   84  A    between atoms: _239  and  _242
REMARK   85  A    between atoms: _245  and  _247
REMARK   86  A    between atoms: _247  and  _248
REMARK   87  A    between atoms: _247  and  _250
REMARK   88  A    between atoms: _250  and  _251
REMARK   89  A    between atoms: _254  and  _256
REMARK   90  A    between atoms: _256  and  _257
REMARK   91  A    between atoms: _260  and  _262
REMARK   92  A    between atoms: _262  and  _263
REMARK   93  A    between atoms: _262  and  _265
REMARK   94  A    between atoms: _268  and  _270
REMARK   95  A    between atoms: _270  and  _271
REMARK   96  A    between atoms: _270  and  _273
REMARK   97  A    between atoms: _273  and  _274
REMARK   98  A    between atoms: _277  and  _279
REMARK   99  A    between atoms: _279  and  _280
REMARK  100  A    between atoms: _282  and  _284
REMARK  101  A    between atoms: _284  and  _285
REMARK  102  A    between atoms: _287  and  _289
REMARK  103  A    between atoms: _289  and  _290
REMARK  104  A    between atoms: _289  and  _292
REMARK  105  A    between atoms: _292  and  _293
REMARK  106  A    between atoms: _295  and  _297
REMARK  107  A    between atoms: _297  and  _298
REMARK  108  A    between atoms: _297  and  _300
REMARK  109  A    between atoms: _300  and  _301
REMARK  110  A    between atoms: _304  and  _306
REMARK  111  A    between atoms: _306  and  _307
REMARK  112  A    between atoms: _306  and  _309
REMARK  113  A    between atoms: _309  and  _310
REMARK  114  A    between atoms: _313  and  _315
REMARK  115  A    between atoms: _315  and  _316
REMARK  116  A    between atoms: _315  and  _318
REMARK  117  A    between atoms: _318  and  _319
REMARK  118  A    between atoms: _323  and  _324
REMARK  119  A    between atoms: _330  and  _331
REMARK  120  A    between atoms: _336  and  _338
REMARK  121  A    between atoms: _338  and  _339
REMARK  122  A    between atoms: _338  and  _341
REMARK  123  A    between atoms: _341  and  _342
REMARK  124  A    between atoms: _345  and  _347
REMARK  125  A    between atoms: _347  and  _348
REMARK  126  A    between atoms: _347  and  _350
REMARK  127  A    between atoms: _350  and  _351
REMARK  128  A    between atoms: _354  and  _356
REMARK  129  A    between atoms: _356  and  _357
REMARK  130  A    between atoms: _356  and  _359
REMARK  131  A    between atoms: _361  and  _363
REMARK  132  A    between atoms: _363  and  _364
REMARK  133  A    between atoms: _363  and  _366
REMARK  134  A    between atoms: _369  and  _371
REMARK  135  A    between atoms: _371  and  _372
REMARK  136  A    between atoms: _371  and  _374
REMARK  137  A    between atoms: _374  and  _375
REMARK  138  A    between atoms: _385  and  _387
REMARK  139  A    between atoms: _387  and  _388
REMARK  140  A    between atoms: _387  and  _390
REMARK  141  A    between atoms: _390  and  _391
REMARK  142  A    between atoms: _396  and  _398
REMARK  143  A    between atoms: _398  and  _399
REMARK  144  A    between atoms: _398  and  _401
REMARK  145  A    between atoms: _401  and  _402
REMARK  146  A    between atoms: _402  and  _403
REMARK  147  A    between atoms: _403  and  _404
REMARK                            x       y       z     vdW  Elec       q    Type
REMARK                         _______ _______ _______ _____ _____    ______ ____
ROOT
ATOM      1  CB  ASN A   1      -2.636   2.167   5.274  0.00  0.00    +0.110 C 
ENDROOT
BRANCH   1   2
ATOM      2  CG  ASN A   1      -3.007   1.313   6.472  0.00  0.00    +0.221 C 
ATOM      3  ND2 ASN A   1      -3.740   1.914   7.406  0.00  0.00    -0.329 N 
ATOM      4 HD21 ASN A   1      -4.041   1.386   8.250  0.00  0.00    +0.145 HD
ATOM      5 HD22 ASN A   1      -4.012   2.911   7.292  0.00  0.00    +0.145 HD
ATOM      6  OD1 ASN A   1      -2.654   0.121   6.559  0.00  0.00    -0.275 OA
ENDBRANCH   1   2
BRANCH   1   7
ATOM      7  CA  ASN A   1      -2.269   1.333   4.043  0.00  0.00    +0.142 C 
BRANCH   7   8
ATOM      8  N   ASN A   1      -3.389   0.512   3.602  0.00  0.00    -0.239 NA
ATOM      9  H   ASN A   1      -3.938  -0.028   4.301  0.00  0.00    +0.142 HD
ENDBRANCH   7   8
BRANCH   7  10
ATOM     10  C   ASN A   1      -1.006   0.520   4.301  0.00  0.00    +0.225 C 
ATOM     11  O   ASN A   1      -0.034   1.032   4.861  0.00  0.00    -0.287 OA
ENDBRANCH   7  10
ENDBRANCH   1   7
TORSDOF 4
REMARK  Name = ../refined-set-2016/4ruy/4ruy_pocket.pdb
REMARK  147 active torsions:
REMARK  status: ('A' for Active; 'I' for Inactive)
REMARK    1  A    between atoms: _1  and  _3
REMARK    2  A    between atoms: _3  and  _4
REMARK    3  A    between atoms: _3  and  _6
REMARK    4  A    between atoms: _6  and  _7
REMARK    5  A    between atoms: _17  and  _19
REMARK    6  A    between atoms: _19  and  _20
REMARK    7  A    between atoms: _19  and  _22
REMARK    8  A    between atoms: _22  and  _23
REMARK    9  A    between atoms: _28  and  _29
REMARK   10  A    between atoms: _31  and  _33
REMARK   11  A    between atoms: _33  and  _34
REMARK   12  A    between atoms: _33  and  _36
REMARK   13  A    between atoms: _36  and  _37
REMARK   14  A    between atoms: _40  and  _41
REMARK   15  A    between atoms: _46  and  _48
REMARK   16  A    between atoms: _48  and  _49
REMARK   17  A    between atoms: _48  and  _51
REMARK   18  A    between atoms: _51  and  _52
REMARK   19  A    between atoms: _57  and  _59
REMARK   20  A    between atoms: _59  and  _60
REMARK   21  A    between atoms: _63  and  _65
REMARK   22  A    between atoms: _65  and  _66
REMARK   23  A    between atoms: _65  and  _68
REMARK   24  A    between atoms: _68  and  _69
REMARK   25  A    between atoms: _74  and  _76
REMARK   26  A    between atoms: _76  and  _77
REMARK   27  A    between atoms: _76  and  _79
REMARK   28  A    between atoms: _79  and  _80
REMARK   29  A    between atoms: _83  and  _85
REMARK   30  A    between atoms: _85  and  _86
REMARK   31  A    between atoms: _85  and  _88
REMARK   32  A    between atoms: _88  and  _89
REMARK   33  A    between atoms: _89  and  _90
REMARK   34  A    between atoms: _95  and  _97
REMARK   35  A    between atoms: _97  and  _98
REMARK   36  A    between atoms: _97  and  _100
REMARK   37  A    between atoms: _100  and  _101
REMARK   38  A    between atoms: _107  and  _109
REMARK   39  A    between atoms: _120  and  _123
REMARK   40  A    between atoms: _123  and  _124
REMARK   41  A    between atoms: _132  and  _133
REMARK   42  A    between atoms: _141  and  _143
REMARK   43  A    between atoms: _143  and  _144
REMARK   44  A    between atoms: _143  and  _146
REMARK   45  A    between atoms: _146  and  _147
REMARK   46  A    between atoms: _147  and  _148
REMARK   47  A    between atoms: _151  and  _153
REMARK   48  A    between atoms: _153  and  _154
REMARK   49  A    between atoms: _153  and  _156
REMARK   50  A    between atoms: _156  and  _157
REMARK   51  A    between atoms: _162  and  _164
REMARK   52  A    between atoms: _164  and  _165
REMARK   53  A    between atoms: _164  and  _167
REMARK   54  A    between atoms: _167  and  _168
REMARK   55  A    between atoms: _168  and  _169
REMARK   56  A    between atoms: _172  and  _174
REMARK   57  A    between atoms: _174  and  _175
REMARK   58  A    between atoms: _174  and  _177
REMARK   59  A    between atoms: _177  and  _178
REMARK   60  A    between atoms: _181  and  _183
REMARK   61  A    between atoms: _183  and  _184
REMARK   62  A    between atoms: _183  and  _186
REMARK   63  A    between atoms: _186  and  _187
REMARK   64  A    between atoms: _188  and  ZN_413
REMARK   65  A    between atoms: _192  and  _194
REMARK   66  A    between atoms: _194  and  _195
REMARK   67  A    between atoms: _194  and  _197
REMARK   68  A    between atoms: _197  and  _198
REMARK   69  A    between atoms: _201  and  _203
REMARK   70  A    between atoms: _203  and  _204
REMARK   71  A    between atoms: _203  and  _206
REMARK   72  A    between atoms: _209  and  _211
REMARK   73  A    between atoms: _211  and  _212
REMARK   74  A    between atoms: _211  and  _214
REMARK   75  A    between atoms: _214  and  _215
REMARK   76  A    between atoms: _220  and  _222
REMARK   77  A    between atoms: _222  and  _223
REMARK   78  A    between atoms: _222  and  _225
REMARK   79  A    between atoms: _225  and  _226
REMARK   80  A    between atoms: _232  and  _234
REMARK   81  A    between atoms: _234  and  _235
REMARK   82  A    between atoms: _237  and  _239
REMARK   83  A    between atoms: _239  and  _240
REMARK   84  A    between atoms: _239  and  _242
REMARK   85  A    between atoms: _245  and  _247
REMARK   86  A    between atoms: _247  and  _248
REMARK   87  A    between atoms: _247  and  _250
REMARK   88  A    between atoms: _250  and  _251
REMARK   89  A    between atoms: _254  and  _256
REMARK   90  A    between atoms: _256  and  _257
REMARK   91  A    between atoms: _260  and  _262
REMARK   92  A    between atoms: _262  and  _263
REMARK   93  A    between atoms: _262  and  _265
REMARK   94  A    between atoms: _268  and  _270
REMARK   95  A    between atoms: _270  and  _271
REMARK   96  A    between atoms: _270  and  _273
REMARK   97  A    between atoms: _273  and  _274
REMARK   98  A    between atoms: _277  and  _279
REMARK   99  A    between atoms: _279  and  _280
REMARK  100  A    between atoms: _282  and  _284
REMARK  101  A    between atoms: _284  and  _285
REMARK  102  A    between atoms: _287  and  _289
REMARK  103  A    between atoms: _289  and  _290
REMARK  104  A    between atoms: _289  and  _292
REMARK  105  A    between atoms: _292  and  _293
REMARK  106  A    between atoms: _295  and  _297
REMARK  107  A    between atoms: _297  and  _298
REMARK  108  A    between atoms: _297  and  _300
REMARK  109  A    between atoms: _300  and  _301
REMARK  110  A    between atoms: _304  and  _306
REMARK  111  A    between atoms: _306  and  _307
REMARK  112  A    between atoms: _306  and  _309
REMARK  113  A    between atoms: _309  and  _310
REMARK  114  A    between atoms: _313  and  _315
REMARK  115  A    between atoms: _315  and  _316
REMARK  116  A    between atoms: _315  and  _318
REMARK  117  A    between atoms: _318  and  _319
REMARK  118  A    between atoms: _323  and  _324
REMARK  119  A    between atoms: _330  and  _331
REMARK  120  A    between atoms: _336  and  _338
REMARK  121  A    between atoms: _338  and  _339
REMARK  122  A    between atoms: _338  and  _341
REMARK  123  A    between atoms: _341  and  _342
REMARK  124  A    between atoms: _345  and  _347
REMARK  125  A    between atoms: _347  and  _348
REMARK  126  A    between atoms: _347  and  _350
REMARK  127  A    between atoms: _350  and  _351
REMARK  128  A    between atoms: _354  and  _356
REMARK  129  A    between atoms: _356  and  _357
REMARK  130  A    between atoms: _356  and  _359
REMARK  131  A    between atoms: _361  and  _363
REMARK  132  A    between atoms: _363  and  _364
REMARK  133  A    between atoms: _363  and  _366
REMARK  134  A    between atoms: _369  and  _371
REMARK  135  A    between atoms: _371  and  _372
REMARK  136  A    between atoms: _371  and  _374
REMARK  137  A    between atoms: _374  and  _375
REMARK  138  A    between atoms: _385  and  _387
REMARK  139  A    between atoms: _387  and  _388
REMARK  140  A    between atoms: _387  and  _390
REMARK  141  A    between atoms: _390  and  _391
REMARK  142  A    between atoms: _396  and  _398
REMARK  143  A    between atoms: _398  and  _399
REMARK  144  A    between atoms: _398  and  _401
REMARK  145  A    between atoms: _401  and  _402
REMARK  146  A    between atoms: _402  and  _403
REMARK  147  A    between atoms: _403  and  _404
REMARK                            x       y       z     vdW  Elec       q    Type
REMARK                         _______ _______ _______ _____ _____    ______ ____
ROOT
ATOM      1  CA  ALA A   1      -4.637  -3.134   7.285  0.00  0.00    +0.133 C 
ATOM      2  CB  ALA A   1      -5.267  -2.859   8.672  0.00  0.00    +0.027 C 
ENDROOT
BRANCH   1   3
ATOM      3  N   ALA A   1      -3.268  -2.651   7.230  0.00  0.00    -0.239 NA
ATOM      4  H   ALA A   1      -3.070  -1.811   6.650  0.00  0.00    +0.142 HD
ENDBRANCH   1   3
BRANCH   1   5
ATOM      5  C   ALA A   1      -5.360  -2.367   6.179  0.00  0.00    +0.224 C 
ATOM      6  O   ALA A   1      -4.710  -1.691   5.365  0.00  0.00    -0.287 OA
ENDBRANCH   1   5
TORSDOF 2
REMARK  Name = ../refined-set-2016/4ruy/4ruy_pocket.pdb
REMARK  147 active torsions:
REMARK  status: ('A' for Active; 'I' for Inactive)
REMARK    1  A    between atoms: _1  and  _3
REMARK    2  A    between atoms: _3  and  _4
REMARK    3  A    between atoms: _3  and  _6
REMARK    4  A    between atoms: _6  and  _7
REMARK    5  A    between atoms: _17  and  _19
REMARK    6  A    between atoms: _19  and  _20
REMARK    7  A    between atoms: _19  and  _22
REMARK    8  A    between atoms: _22  and  _23
REMARK    9  A    between atoms: _28  and  _29
REMARK   10  A    between atoms: _31  and  _33
REMARK   11  A    between atoms: _33  and  _34
REMARK   12  A    between atoms: _33  and  _36
REMARK   13  A    between atoms: _36  and  _37
REMARK   14  A    between atoms: _40  and  _41
REMARK   15  A    between atoms: _46  and  _48
REMARK   16  A    between atoms: _48  and  _49
REMARK   17  A    between atoms: _48  and  _51
REMARK   18  A    between atoms: _51  and  _52
REMARK   19  A    between atoms: _57  and  _59
REMARK   20  A    between atoms: _59  and  _60
REMARK   21  A    between atoms: _63  and  _65
REMARK   22  A    between atoms: _65  and  _66
REMARK   23  A    between atoms: _65  and  _68
REMARK   24  A    between atoms: _68  and  _69
REMARK   25  A    between atoms: _74  and  _76
REMARK   26  A    between atoms: _76  and  _77
REMARK   27  A    between atoms: _76  and  _79
REMARK   28  A    between atoms: _79  and  _80
REMARK   29  A    between atoms: _83  and  _85
REMARK   30  A    between atoms: _85  and  _86
REMARK   31  A    between atoms: _85  and  _88
REMARK   32  A    between atoms: _88  and  _89
REMARK   33  A    between atoms: _89  and  _90
REMARK   34  A    between atoms: _95  and  _97
REMARK   35  A    between atoms: _97  and  _98
REMARK   36  A    between atoms: _97  and  _100
REMARK   37  A    between atoms: _100  and  _101
REMARK   38  A    between atoms: _107  and  _109
REMARK   39  A    between atoms: _120  and  _123
REMARK   40  A    between atoms: _123  and  _124
REMARK   41  A    between atoms: _132  and  _133
REMARK   42  A    between atoms: _141  and  _143
REMARK   43  A    between atoms: _143  and  _144
REMARK   44  A    between atoms: _143  and  _146
REMARK   45  A    between atoms: _146  and  _147
REMARK   46  A    between atoms: _147  and  _148
REMARK   47  A    between atoms: _151  and  _153
REMARK   48  A    between atoms: _153  and  _154
REMARK   49  A    between atoms: _153  and  _156
REMARK   50  A    between atoms: _156  and  _157
REMARK   51  A    between atoms: _162  and  _164
REMARK   52  A    between atoms: _164  and  _165
REMARK   53  A    between atoms: _164  and  _167
REMARK   54  A    between atoms: _167  and  _168
REMARK   55  A    between atoms: _168  and  _169
REMARK   56  A    between atoms: _172  and  _174
REMARK   57  A    between atoms: _174  and  _175
REMARK   58  A    between atoms: _174  and  _177
REMARK   59  A    between atoms: _177  and  _178
REMARK   60  A    between atoms: _181  and  _183
REMARK   61  A    between atoms: _183  and  _184
REMARK   62  A    between atoms: _183  and  _186
REMARK   63  A    between atoms: _186  and  _187
REMARK   64  A    between atoms: _188  and  ZN_413
REMARK   65  A    between atoms: _192  and  _194
REMARK   66  A    between atoms: _194  and  _195
REMARK   67  A    between atoms: _194  and  _197
REMARK   68  A    between atoms: _197  and  _198
REMARK   69  A    between atoms: _201  and  _203
REMARK   70  A    between atoms: _203  and  _204
REMARK   71  A    between atoms: _203  and  _206
REMARK   72  A    between atoms: _209  and  _211
REMARK   73  A    between atoms: _211  and  _212
REMARK   74  A    between atoms: _211  and  _214
REMARK   75  A    between atoms: _214  and  _215
REMARK   76  A    between atoms: _220  and  _222
REMARK   77  A    between atoms: _222  and  _223
REMARK   78  A    between atoms: _222  and  _225
REMARK   79  A    between atoms: _225  and  _226
REMARK   80  A    between atoms: _232  and  _234
REMARK   81  A    between atoms: _234  and  _235
REMARK   82  A    between atoms: _237  and  _239
REMARK   83  A    between atoms: _239  and  _240
REMARK   84  A    between atoms: _239  and  _242
REMARK   85  A    between atoms: _245  and  _247
REMARK   86  A    between atoms: _247  and  _248
REMARK   87  A    between atoms: _247  and  _250
REMARK   88  A    between atoms: _250  and  _251
REMARK   89  A    between atoms: _254  and  _256
REMARK   90  A    between atoms: _256  and  _257
REMARK   91  A    between atoms: _260  and  _262
REMARK   92  A    between atoms: _262  and  _263
REMARK   93  A    between atoms: _262  and  _265
REMARK   94  A    between atoms: _268  and  _270
REMARK   95  A    between atoms: _270  and  _271
REMARK   96  A    between atoms: _270  and  _273
REMARK   97  A    between atoms: _273  and  _274
REMARK   98  A    between atoms: _277  and  _279
REMARK   99  A    between atoms: _279  and  _280
REMARK  100  A    between atoms: _282  and  _284
REMARK  101  A    between atoms: _284  and  _285
REMARK  102  A    between atoms: _287  and  _289
REMARK  103  A    between atoms: _289  and  _290
REMARK  104  A    between atoms: _289  and  _292
REMARK  105  A    between atoms: _292  and  _293
REMARK  106  A    between atoms: _295  and  _297
REMARK  107  A    between atoms: _297  and  _298
REMARK  108  A    between atoms: _297  and  _300
REMARK  109  A    between atoms: _300  and  _301
REMARK  110  A    between atoms: _304  and  _306
REMARK  111  A    between atoms: _306  and  _307
REMARK  112  A    between atoms: _306  and  _309
REMARK  113  A    between atoms: _309  and  _310
REMARK  114  A    between atoms: _313  and  _315
REMARK  115  A    between atoms: _315  and  _316
REMARK  116  A    between atoms: _315  and  _318
REMARK  117  A    between atoms: _318  and  _319
REMARK  118  A    between atoms: _323  and  _324
REMARK  119  A    between atoms: _330  and  _331
REMARK  120  A    between atoms: _336  and  _338
REMARK  121  A    between atoms: _338  and  _339
REMARK  122  A    between atoms: _338  and  _341
REMARK  123  A    between atoms: _341  and  _342
REMARK  124  A    between atoms: _345  and  _347
REMARK  125  A    between atoms: _347  and  _348
REMARK  126  A    between atoms: _347  and  _350
REMARK  127  A    between atoms: _350  and  _351
REMARK  128  A    between atoms: _354  and  _356
REMARK  129  A    between atoms: _356  and  _357
REMARK  130  A    between atoms: _356  and  _359
REMARK  131  A    between atoms: _361  and  _363
REMARK  132  A    between atoms: _363  and  _364
REMARK  133  A    between atoms: _363  and  _366
REMARK  134  A    between atoms: _369  and  _371
REMARK  135  A    between atoms: _371  and  _372
REMARK  136  A    between atoms: _371  and  _374
REMARK  137  A    between atoms: _374  and  _375
REMARK  138  A    between atoms: _385  and  _387
REMARK  139  A    between atoms: _387  and  _388
REMARK  140  A    between atoms: _387  and  _390
REMARK  141  A    between atoms: _390  and  _391
REMARK  142  A    between atoms: _396  and  _398
REMARK  143  A    between atoms: _398  and  _399
REMARK  144  A    between atoms: _398  and  _401
REMARK  145  A    between atoms: _401  and  _402
REMARK  146  A    between atoms: _402  and  _403
REMARK  147  A    between atoms: _403  and  _404
REMARK                            x       y       z     vdW  Elec       q    Type
REMARK                         _______ _______ _______ _____ _____    ______ ____
ROOT
ATOM      1  CB  ASN A   1      -8.555   2.752   6.935  0.00  0.00    +0.110 C 
ENDROOT
BRANCH   1   2
ATOM      2  CG  ASN A   1      -7.523   2.507   8.004  0.00  0.00    +0.221 C 
ATOM      3  OD1 ASN A   1      -7.455   1.427   8.579  0.00  0.00    -0.275 OA
ATOM      4  ND2 ASN A   1      -6.714   3.523   8.291  0.00  0.00    -0.329 N 
ATOM      5 HD21 ASN A   1      -5.989   3.418   9.029  0.00  0.00    +0.145 HD
ATOM      6 HD22 ASN A   1      -6.807   4.423   7.778  0.00  0.00    +0.145 HD
ENDBRANCH   1   2
BRANCH   1   7
ATOM      7  CA  ASN A   1      -9.321   1.484   6.548  0.00  0.00    +0.142 C 
BRANCH   7   8
ATOM      8  N   ASN A   1      -8.469   0.571   5.810  0.00  0.00    -0.239 NA
ATOM      9  H   ASN A   1      -7.910   0.930   5.010  0.00  0.00    +0.142 HD
ENDBRANCH   7   8
BRANCH   7  10
ATOM     10  C   ASN A   1     -10.505   1.902   5.713  0.00  0.00    +0.225 C 
ATOM     11  O   ASN A   1     -10.333   2.361   4.579  0.00  0.00    -0.287 OA
ENDBRANCH   7  10
ENDBRANCH   1   7
TORSDOF 4
REMARK  Name = ../refined-set-2016/4ruy/4ruy_pocket.pdb
REMARK  147 active torsions:
REMARK  status: ('A' for Active; 'I' for Inactive)
REMARK    1  A    between atoms: _1  and  _3
REMARK    2  A    between atoms: _3  and  _4
REMARK    3  A    between atoms: _3  and  _6
REMARK    4  A    between atoms: _6  and  _7
REMARK    5  A    between atoms: _17  and  _19
REMARK    6  A    between atoms: _19  and  _20
REMARK    7  A    between atoms: _19  and  _22
REMARK    8  A    between atoms: _22  and  _23
REMARK    9  A    between atoms: _28  and  _29
REMARK   10  A    between atoms: _31  and  _33
REMARK   11  A    between atoms: _33  and  _34
REMARK   12  A    between atoms: _33  and  _36
REMARK   13  A    between atoms: _36  and  _37
REMARK   14  A    between atoms: _40  and  _41
REMARK   15  A    between atoms: _46  and  _48
REMARK   16  A    between atoms: _48  and  _49
REMARK   17  A    between atoms: _48  and  _51
REMARK   18  A    between atoms: _51  and  _52
REMARK   19  A    between atoms: _57  and  _59
REMARK   20  A    between atoms: _59  and  _60
REMARK   21  A    between atoms: _63  and  _65
REMARK   22  A    between atoms: _65  and  _66
REMARK   23  A    between atoms: _65  and  _68
REMARK   24  A    between atoms: _68  and  _69
REMARK   25  A    between atoms: _74  and  _76
REMARK   26  A    between atoms: _76  and  _77
REMARK   27  A    between atoms: _76  and  _79
REMARK   28  A    between atoms: _79  and  _80
REMARK   29  A    between atoms: _83  and  _85
REMARK   30  A    between atoms: _85  and  _86
REMARK   31  A    between atoms: _85  and  _88
REMARK   32  A    between atoms: _88  and  _89
REMARK   33  A    between atoms: _89  and  _90
REMARK   34  A    between atoms: _95  and  _97
REMARK   35  A    between atoms: _97  and  _98
REMARK   36  A    between atoms: _97  and  _100
REMARK   37  A    between atoms: _100  and  _101
REMARK   38  A    between atoms: _107  and  _109
REMARK   39  A    between atoms: _120  and  _123
REMARK   40  A    between atoms: _123  and  _124
REMARK   41  A    between atoms: _132  and  _133
REMARK   42  A    between atoms: _141  and  _143
REMARK   43  A    between atoms: _143  and  _144
REMARK   44  A    between atoms: _143  and  _146
REMARK   45  A    between atoms: _146  and  _147
REMARK   46  A    between atoms: _147  and  _148
REMARK   47  A    between atoms: _151  and  _153
REMARK   48  A    between atoms: _153  and  _154
REMARK   49  A    between atoms: _153  and  _156
REMARK   50  A    between atoms: _156  and  _157
REMARK   51  A    between atoms: _162  and  _164
REMARK   52  A    between atoms: _164  and  _165
REMARK   53  A    between atoms: _164  and  _167
REMARK   54  A    between atoms: _167  and  _168
REMARK   55  A    between atoms: _168  and  _169
REMARK   56  A    between atoms: _172  and  _174
REMARK   57  A    between atoms: _174  and  _175
REMARK   58  A    between atoms: _174  and  _177
REMARK   59  A    between atoms: _177  and  _178
REMARK   60  A    between atoms: _181  and  _183
REMARK   61  A    between atoms: _183  and  _184
REMARK   62  A    between atoms: _183  and  _186
REMARK   63  A    between atoms: _186  and  _187
REMARK   64  A    between atoms: _188  and  ZN_413
REMARK   65  A    between atoms: _192  and  _194
REMARK   66  A    between atoms: _194  and  _195
REMARK   67  A    between atoms: _194  and  _197
REMARK   68  A    between atoms: _197  and  _198
REMARK   69  A    between atoms: _201  and  _203
REMARK   70  A    between atoms: _203  and  _204
REMARK   71  A    between atoms: _203  and  _206
REMARK   72  A    between atoms: _209  and  _211
REMARK   73  A    between atoms: _211  and  _212
REMARK   74  A    between atoms: _211  and  _214
REMARK   75  A    between atoms: _214  and  _215
REMARK   76  A    between atoms: _220  and  _222
REMARK   77  A    between atoms: _222  and  _223
REMARK   78  A    between atoms: _222  and  _225
REMARK   79  A    between atoms: _225  and  _226
REMARK   80  A    between atoms: _232  and  _234
REMARK   81  A    between atoms: _234  and  _235
REMARK   82  A    between atoms: _237  and  _239
REMARK   83  A    between atoms: _239  and  _240
REMARK   84  A    between atoms: _239  and  _242
REMARK   85  A    between atoms: _245  and  _247
REMARK   86  A    between atoms: _247  and  _248
REMARK   87  A    between atoms: _247  and  _250
REMARK   88  A    between atoms: _250  and  _251
REMARK   89  A    between atoms: _254  and  _256
REMARK   90  A    between atoms: _256  and  _257
REMARK   91  A    between atoms: _260  and  _262
REMARK   92  A    between atoms: _262  and  _263
REMARK   93  A    between atoms: _262  and  _265
REMARK   94  A    between atoms: _268  and  _270
REMARK   95  A    between atoms: _270  and  _271
REMARK   96  A    between atoms: _270  and  _273
REMARK   97  A    between atoms: _273  and  _274
REMARK   98  A    between atoms: _277  and  _279
REMARK   99  A    between atoms: _279  and  _280
REMARK  100  A    between atoms: _282  and  _284
REMARK  101  A    between atoms: _284  and  _285
REMARK  102  A    between atoms: _287  and  _289
REMARK  103  A    between atoms: _289  and  _290
REMARK  104  A    between atoms: _289  and  _292
REMARK  105  A    between atoms: _292  and  _293
REMARK  106  A    between atoms: _295  and  _297
REMARK  107  A    between atoms: _297  and  _298
REMARK  108  A    between atoms: _297  and  _300
REMARK  109  A    between atoms: _300  and  _301
REMARK  110  A    between atoms: _304  and  _306
REMARK  111  A    between atoms: _306  and  _307
REMARK  112  A    between atoms: _306  and  _309
REMARK  113  A    between atoms: _309  and  _310
REMARK  114  A    between atoms: _313  and  _315
REMARK  115  A    between atoms: _315  and  _316
REMARK  116  A    between atoms: _315  and  _318
REMARK  117  A    between atoms: _318  and  _319
REMARK  118  A    between atoms: _323  and  _324
REMARK  119  A    between atoms: _330  and  _331
REMARK  120  A    between atoms: _336  and  _338
REMARK  121  A    between atoms: _338  and  _339
REMARK  122  A    between atoms: _338  and  _341
REMARK  123  A    between atoms: _341  and  _342
REMARK  124  A    between atoms: _345  and  _347
REMARK  125  A    between atoms: _347  and  _348
REMARK  126  A    between atoms: _347  and  _350
REMARK  127  A    between atoms: _350  and  _351
REMARK  128  A    between atoms: _354  and  _356
REMARK  129  A    between atoms: _356  and  _357
REMARK  130  A    between atoms: _356  and  _359
REMARK  131  A    between atoms: _361  and  _363
REMARK  132  A    between atoms: _363  and  _364
REMARK  133  A    between atoms: _363  and  _366
REMARK  134  A    between atoms: _369  and  _371
REMARK  135  A    between atoms: _371  and  _372
REMARK  136  A    between atoms: _371  and  _374
REMARK  137  A    between atoms: _374  and  _375
REMARK  138  A    between atoms: _385  and  _387
REMARK  139  A    between atoms: _387  and  _388
REMARK  140  A    between atoms: _387  and  _390
REMARK  141  A    between atoms: _390  and  _391
REMARK  142  A    between atoms: _396  and  _398
REMARK  143  A    between atoms: _398  and  _399
REMARK  144  A    between atoms: _398  and  _401
REMARK  145  A    between atoms: _401  and  _402
REMARK  146  A    between atoms: _402  and  _403
REMARK  147  A    between atoms: _403  and  _404
REMARK                            x       y       z     vdW  Elec       q    Type
REMARK                         _______ _______ _______ _____ _____    ______ ____
ROOT
ATOM      1  C   UNK A   4     -10.352  -1.391  10.184  0.00  0.00    +0.000 C 
ATOM      2  C   UNK A   4     -10.407  -2.660  11.023  0.00  0.00    +0.000 C 
ATOM      3  O   UNK A   4     -11.040  -2.699  12.085  0.00  0.00    +0.000 OA
ATOM      4  N   VAL A   5      -9.722  -3.692  10.542  0.00  0.00    +0.000 N 
ATOM      5  CA  VAL A   5      -9.673  -4.982  11.218  0.00  0.00    +0.000 C 
ATOM      6  C   VAL A   5      -8.227  -5.419  11.410  0.00  0.00    +0.000 C 
ATOM      7  N   UNK A   6      -8.053  -6.347  12.350  0.00  0.00    +0.000 N 
ATOM      8  H   UNK A   6      -8.823  -6.516  13.028  0.00  0.00    +0.000 HD
ATOM      9  C   UNK A   6      -6.829  -7.139  12.473  0.00  0.00    +0.000 C 
ATOM     10  C   UNK A   6      -6.139  -6.890  13.811  0.00  0.00    +0.000 C 
ATOM     11  C   UNK A   6      -5.871  -5.442  14.069  0.00  0.00    +0.000 A 
ATOM     12  C   UNK A   6      -6.697  -4.436  14.453  0.00  0.00    +0.000 A 
ATOM     13  N   UNK A   6      -5.950  -3.285  14.494  0.00  0.00    +0.000 N 
ATOM     14 ZN   UNK A   6      -6.721  -1.525  15.176  0.00  0.00    +0.000 Zn
ATOM     15  N   UNK A   4      -7.473  -0.673  13.512  0.00  0.00    +0.000 N 
ATOM     16  C   UNK A   4      -7.946   0.550  13.343  0.00  0.00    +0.000 A 
ATOM     17  N   UNK A   4      -8.505   0.622  12.146  0.00  0.00    +0.000 NA
ATOM     18  C   UNK A   4      -8.368  -0.591  11.506  0.00  0.00    +0.000 A 
ATOM     19  C   UNK A   4      -7.716  -1.401  12.372  0.00  0.00    +0.000 A 
ATOM     20  C   UNK A   6      -4.710  -3.568  14.141  0.00  0.00    +0.000 A 
ATOM     21  N   UNK A   6      -4.637  -4.863  13.867  0.00  0.00    +0.000 NA
ATOM     22  O   VAL A   5      -7.307  -4.954  10.718  0.00  0.00    +0.000 OA
ATOM     23  H   VAL A   5      -9.201  -3.575   9.649  0.00  0.00    +0.000 HD
ATOM     24  C   UNK A   4      -8.927  -0.854  10.146  0.00  0.00    +0.000 C 
ENDROOT
BRANCH  14  25
ATOM     25  N   UNK A   6      -8.175  -2.264  16.406  0.00  0.00    +0.000 N 
ATOM     26  C   UNK A   6      -7.861  -3.174  17.314  0.00  0.00    +0.000 A 
ATOM     27  N   UNK A   6      -8.967  -3.558  17.930  0.00  0.00    +0.000 NA
ATOM     28  C   UNK A   6     -10.033  -2.881  17.393  0.00  0.00    +0.000 A 
ATOM     29  C   UNK A   6      -9.540  -2.054  16.441  0.00  0.00    +0.000 A 
BRANCH  29  30
ATOM     30  C   UNK A   6     -10.251  -1.106  15.539  0.00  0.00    +0.000 C 
BRANCH  30  31
ATOM     31  C   UNK A   6     -11.756  -1.374  15.468  0.00  0.00    +0.000 C 
BRANCH  31  32
ATOM     32  C   UNK A   6     -12.446  -0.201  14.790  0.00  0.00    +0.000 C 
ATOM     33  N   UNK A   4     -13.463   0.343  15.450  0.00  0.00    +0.000 N 
ATOM     34  H   UNK A   4     -13.817  -0.135  16.303  0.00  0.00    +0.000 HD
ATOM     35  O   UNK A   6     -12.082   0.176  13.672  0.00  0.00    +0.000 OA
BRANCH  33  36
ATOM     36  C   UNK A   4     -14.102   1.582  15.028  0.00  0.00    +0.000 C 
BRANCH  36  37
ATOM     37  C   UNK A   4     -13.469   2.723  15.816  0.00  0.00    +0.000 C 
ATOM     38  O   UNK A   4     -13.589   2.797  17.040  0.00  0.00    +0.000 OA
ATOM     39  N   VAL A   5     -12.758   3.580  15.096  0.00  0.00    +0.000 N 
ATOM     40  H   VAL A   5     -12.812   3.525  14.059  0.00  0.00    +0.000 HD
BRANCH  39  41
ATOM     41  CA  VAL A   5     -11.903   4.597  15.698  0.00  0.00    +0.000 C 
BRANCH  41  42
ATOM     42  C   VAL A   5     -12.601   5.943  15.727  0.00  0.00    +0.000 C 
ATOM     43  N   UNK A   6     -12.675   6.538  16.919  0.00  0.00    +0.000 N 
ATOM     44  H   UNK A   6     -12.232   6.076  17.738  0.00  0.00    +0.000 HD
ATOM     45  O   VAL A   5     -13.054   6.433  14.689  0.00  0.00    +0.000 OA
BRANCH  43  46
ATOM     46  C   UNK A   6     -13.357   7.817  17.115  0.00  0.00    +0.000 C 
BRANCH  46  47
ATOM     47  C   UNK A   6     -12.447   8.798  17.852  0.00  0.00    +0.000 C 
ATOM     48  O   UNK A   6     -11.713   8.391  18.754  0.00  0.00    +0.000 OA
ENDBRANCH  46  47
BRANCH  46  49
ATOM     49  C   UNK A   6     -14.628   7.648  17.962  0.00  0.00    +0.000 C 
BRANCH  49  50
ATOM     50  C   UNK A   6     -15.518   6.514  17.548  0.00  0.00    +0.000 A 
ATOM     51  N   UNK A   6     -15.212   5.193  17.801  0.00  0.00    +0.000 NA
ATOM     52  C   UNK A   6     -16.191   4.425  17.352  0.00  0.00    +0.000 A 
ATOM     53  N   UNK A   6     -17.125   5.197  16.829  0.00  0.00    +0.000 NA
ATOM     54  C   UNK A   6     -16.731   6.508  16.947  0.00  0.00    +0.000 A 
ENDBRANCH  49  50
ENDBRANCH  46  49
ENDBRANCH  43  46
ENDBRANCH  41  42
BRANCH  41  55
ATOM     55  CB  VAL A   5     -10.589   4.715  14.903  0.00  0.00    +0.000 C 
ATOM     56  CG2 VAL A   5      -9.657   5.755  15.546  0.00  0.00    +0.000 C 
ATOM     57  CG1 VAL A   5      -9.918   3.342  14.767  0.00  0.00    +0.000 C 
ENDBRANCH  41  55
ENDBRANCH  39  41
ENDBRANCH  36  37
BRANCH  36  58
ATOM     58  C   UNK A   4     -15.613   1.507  15.248  0.00  0.00    +0.000 C 
BRANCH  58  59
ATOM     59  C   UNK A   4     -16.326   0.437  14.404  0.00  0.00    +0.000 C 
ATOM     60  C   UNK A   4     -17.200  -0.472  15.248  0.00  0.00    +0.000 C 
ATOM     61  C   UNK A   4     -17.143   1.079  13.292  0.00  0.00    +0.000 C 
ENDBRANCH  58  59
ENDBRANCH  36  58
ENDBRANCH  33  36
ENDBRANCH  31  32
BRANCH  31  62
ATOM     62  N   UNK A   6     -12.002  -2.596  14.716  0.00  0.00    +0.000 N 
ATOM     63  C   LEU A   2     -12.619  -3.660  15.227  0.00  0.00    +0.000 C 
ATOM     64  O   LEU A   2     -13.010  -3.728  16.401  0.00  0.00    +0.000 OA
ATOM     65  H   UNK A   6     -11.679  -2.640  13.728  0.00  0.00    +0.000 HD
BRANCH  63  66
ATOM     66  CA  LEU A   2     -12.854  -4.820  14.262  0.00  0.00    +0.000 C 
BRANCH  66  67
ATOM     67  N   LEU A   2     -12.463  -6.067  14.893  0.00  0.00    +0.000 N 
ATOM     68  H   LEU A   2     -13.177  -6.566  15.462  0.00  0.00    +0.000 HD
ATOM     69  C   GLU A   1     -11.254  -6.618  14.795  0.00  0.00    +0.000 C 
ATOM     70  O   GLU A   1     -10.348  -6.194  14.073  0.00  0.00    +0.000 OA
BRANCH  69  71
ATOM     71  CA  GLU A   1     -11.046  -7.892  15.610  0.00  0.00    +0.000 C 
BRANCH  71  72
ATOM     72  N   GLU A   1     -10.539  -8.930  14.726  0.00  0.00    +0.000 NA
ATOM     73  H   GLU A   1      -9.902  -8.660  13.950  0.00  0.00    +0.000 HD
ENDBRANCH  71  72
BRANCH  71  74
ATOM     74  CB  GLU A   1     -10.059  -7.645  16.757  0.00  0.00    +0.000 C 
BRANCH  74  75
ATOM     75  CG  GLU A   1     -10.553  -6.674  17.826  0.00  0.00    +0.000 C 
BRANCH  75  76
ATOM     76  CD  GLU A   1      -9.625  -6.600  19.024  0.00  0.00    +0.000 C 
ATOM     77  OE2 GLU A   1      -9.565  -5.524  19.664  0.00  0.00    +0.000 OA
ATOM     78  OE1 GLU A   1      -8.966  -7.624  19.326  0.00  0.00    +0.000 OA
ENDBRANCH  75  76
ENDBRANCH  74  75
ENDBRANCH  71  74
ENDBRANCH  69  71
ENDBRANCH  66  67
BRANCH  66  79
ATOM     79  CB  LEU A   2     -14.336  -4.906  13.921  0.00  0.00    +0.000 C 
BRANCH  79  80
ATOM     80  CG  LEU A   2     -15.103  -3.635  13.544  0.00  0.00    +0.000 C 
ATOM     81  CD2 LEU A   2     -16.554  -3.978  13.277  0.00  0.00    +0.000 C 
ATOM     82  CD1 LEU A   2     -14.491  -2.945  12.332  0.00  0.00    +0.000 C 
ENDBRANCH  79  80
ENDBRANCH  66  79
ENDBRANCH  63  66
ENDBRANCH  31  62
ENDBRANCH  30  31
ENDBRANCH  29  30
ENDBRANCH  14  25
BRANCH   1  84
ATOM     83  C   UNK A   3     -11.778   0.575  10.126  0.00  0.00    +0.000 C 
ATOM     84  N   UNK A   4     -11.231  -0.423  10.799  0.00  0.00    +0.000 N 
ATOM     85  H   UNK A   4     -11.442  -0.515  11.813  0.00  0.00    +0.000 HD
ATOM     86  O   UNK A   3     -11.543   0.800   8.934  0.00  0.00    +0.000 OA
BRANCH  83  87
ATOM     87  C   UNK A   3     -12.721   1.445  10.942  0.00  0.00    +0.000 C 
BRANCH  87  90
ATOM     88  C   LEU A   2     -12.646   3.858  11.047  0.00  0.00    +0.000 C 
ATOM     89  O   LEU A   2     -12.643   3.889  12.277  0.00  0.00    +0.000 OA
ATOM     90  N   UNK A   3     -12.867   2.755  10.336  0.00  0.00    +0.000 N 
ATOM     91  H   UNK A   3     -13.147   2.833   9.337  0.00  0.00    +0.000 HD
BRANCH  88  92
ATOM     92  CA  LEU A   2     -12.413   5.123  10.260  0.00  0.00    +0.000 C 
BRANCH  92  94
ATOM     93  C   GLU A   1     -12.799   7.496  10.579  0.00  0.00    +0.000 C 
ATOM     94  N   LEU A   2     -12.692   6.281  11.106  0.00  0.00    +0.000 N 
ATOM     95  H   LEU A   2     -12.808   6.153  12.132  0.00  0.00    +0.000 HD
ATOM     96  O   GLU A   1     -12.717   7.691   9.369  0.00  0.00    +0.000 OA
BRANCH  93  97
ATOM     97  CA  GLU A   1     -13.058   8.667  11.534  0.00  0.00    +0.000 C 
BRANCH  97  98
ATOM     98  CB  GLU A   1     -11.730   9.306  12.037  0.00  0.00    +0.000 C 
ATOM     99  CG2 GLU A   1     -11.052   8.437  13.100  0.00  0.00    +0.000 C 
BRANCH  98 100
ATOM    100  CG1 GLU A   1     -10.807   9.642  10.860  0.00  0.00    +0.000 C 
ATOM    101  CD1 GLU A   1      -9.620  10.514  11.259  0.00  0.00    +0.000 C 
ENDBRANCH  98 100
ENDBRANCH  97  98
BRANCH  97 102
ATOM    102  N   GLU A   1     -13.936   8.303  12.639  0.00  0.00    +0.000 NA
ATOM    103  H   GLU A   1     -13.575   7.677  13.387  0.00  0.00    +0.000 HD
ENDBRANCH  97 102
ENDBRANCH  93  97
ENDBRANCH  92  94
BRANCH  92 104
ATOM    104  CB  LEU A   2     -10.961   5.155   9.762  0.00  0.00    +0.000 C 
BRANCH 104 105
ATOM    105  CG  LEU A   2      -9.923   5.306  10.869  0.00  0.00    +0.000 C 
BRANCH 105 106
ATOM    106  CD  LEU A   2      -9.137   4.026  11.148  0.00  0.00    +0.000 C 
ATOM    107  NE2 LEU A   2      -7.863   4.191  11.486  0.00  0.00    +0.000 N 
ATOM    108 HE21 LEU A   2      -7.273   3.364  11.710  0.00  0.00    +0.000 HD
ATOM    109 HE22 LEU A   2      -7.455   5.147  11.527  0.00  0.00    +0.000 HD
ATOM    110  OE1 LEU A   2      -9.665   2.909  11.086  0.00  0.00    +0.000 OA
ENDBRANCH 105 106
ENDBRANCH 104 105
ENDBRANCH  92 104
ENDBRANCH  88  92
ENDBRANCH  87  90
BRANCH  87 111
ATOM    111  C   UNK A   3     -14.069   0.754  11.194  0.00  0.00    +0.000 C 
BRANCH 111 112
ATOM    112  C   UNK A   3     -14.790   0.295   9.955  0.00  0.00    +0.000 A 
ATOM    113  C   UNK A   3     -15.903   0.990   9.509  0.00  0.00    +0.000 A 
ATOM    114  C   UNK A   3     -16.609   0.565   8.400  0.00  0.00    +0.000 A 
ATOM    115  C   UNK A   3     -16.214  -0.581   7.727  0.00  0.00    +0.000 A 
ATOM    116  C   UNK A   3     -15.118  -1.303   8.175  0.00  0.00    +0.000 A 
ATOM    117  C   UNK A   3     -14.420  -0.868   9.288  0.00  0.00    +0.000 A 
ENDBRANCH 111 112
ENDBRANCH  87 111
ENDBRANCH  83  87
ENDBRANCH   1  84
BRANCH   9 118
ATOM    118  C   UNK A   6      -7.254  -8.592  12.369  0.00  0.00    +0.000 C 
ATOM    119  O   UNK A   6      -8.307  -8.969  12.893  0.00  0.00    +0.000 OA
ENDBRANCH   9 118
BRANCH   5 120
ATOM    120  CB  VAL A   5     -10.369  -6.071  10.403  0.00  0.00    +0.000 C 
BRANCH 120 121
ATOM    121  CG  VAL A   5     -11.801  -5.783  10.065  0.00  0.00    +0.000 A 
ATOM    122  CD2 VAL A   5     -12.827  -6.406  10.761  0.00  0.00    +0.000 A 
ATOM    123  CE2 VAL A   5     -14.149  -6.180  10.430  0.00  0.00    +0.000 A 
ATOM    124  CZ  VAL A   5     -14.465  -5.320   9.396  0.00  0.00    +0.000 A 
ATOM    125  CE1 VAL A   5     -13.456  -4.702   8.683  0.00  0.00    +0.000 A 
ATOM    126  CD1 VAL A   5     -12.130  -4.933   9.018  0.00  0.00    +0.000 A 
ENDBRANCH 120 121
ENDBRANCH   5 120
TORSDOF 42
REMARK  Name = ../refined-set-2016/4ruy/4ruy_pocket.pdb
REMARK  147 active torsions:
REMARK  status: ('A' for Active; 'I' for Inactive)
REMARK    1  A    between atoms: _1  and  _3
REMARK    2  A    between atoms: _3  and  _4
REMARK    3  A    between atoms: _3  and  _6
REMARK    4  A    between atoms: _6  and  _7
REMARK    5  A    between atoms: _17  and  _19
REMARK    6  A    between atoms: _19  and  _20
REMARK    7  A    between atoms: _19  and  _22
REMARK    8  A    between atoms: _22  and  _23
REMARK    9  A    between atoms: _28  and  _29
REMARK   10  A    between atoms: _31  and  _33
REMARK   11  A    between atoms: _33  and  _34
REMARK   12  A    between atoms: _33  and  _36
REMARK   13  A    between atoms: _36  and  _37
REMARK   14  A    between atoms: _40  and  _41
REMARK   15  A    between atoms: _46  and  _48
REMARK   16  A    between atoms: _48  and  _49
REMARK   17  A    between atoms: _48  and  _51
REMARK   18  A    between atoms: _51  and  _52
REMARK   19  A    between atoms: _57  and  _59
REMARK   20  A    between atoms: _59  and  _60
REMARK   21  A    between atoms: _63  and  _65
REMARK   22  A    between atoms: _65  and  _66
REMARK   23  A    between atoms: _65  and  _68
REMARK   24  A    between atoms: _68  and  _69
REMARK   25  A    between atoms: _74  and  _76
REMARK   26  A    between atoms: _76  and  _77
REMARK   27  A    between atoms: _76  and  _79
REMARK   28  A    between atoms: _79  and  _80
REMARK   29  A    between atoms: _83  and  _85
REMARK   30  A    between atoms: _85  and  _86
REMARK   31  A    between atoms: _85  and  _88
REMARK   32  A    between atoms: _88  and  _89
REMARK   33  A    between atoms: _89  and  _90
REMARK   34  A    between atoms: _95  and  _97
REMARK   35  A    between atoms: _97  and  _98
REMARK   36  A    between atoms: _97  and  _100
REMARK   37  A    between atoms: _100  and  _101
REMARK   38  A    between atoms: _107  and  _109
REMARK   39  A    between atoms: _120  and  _123
REMARK   40  A    between atoms: _123  and  _124
REMARK   41  A    between atoms: _132  and  _133
REMARK   42  A    between atoms: _141  and  _143
REMARK   43  A    between atoms: _143  and  _144
REMARK   44  A    between atoms: _143  and  _146
REMARK   45  A    between atoms: _146  and  _147
REMARK   46  A    between atoms: _147  and  _148
REMARK   47  A    between atoms: _151  and  _153
REMARK   48  A    between atoms: _153  and  _154
REMARK   49  A    between atoms: _153  and  _156
REMARK   50  A    between atoms: _156  and  _157
REMARK   51  A    between atoms: _162  and  _164
REMARK   52  A    between atoms: _164  and  _165
REMARK   53  A    between atoms: _164  and  _167
REMARK   54  A    between atoms: _167  and  _168
REMARK   55  A    between atoms: _168  and  _169
REMARK   56  A    between atoms: _172  and  _174
REMARK   57  A    between atoms: _174  and  _175
REMARK   58  A    between atoms: _174  and  _177
REMARK   59  A    between atoms: _177  and  _178
REMARK   60  A    between atoms: _181  and  _183
REMARK   61  A    between atoms: _183  and  _184
REMARK   62  A    between atoms: _183  and  _186
REMARK   63  A    between atoms: _186  and  _187
REMARK   64  A    between atoms: _188  and  ZN_413
REMARK   65  A    between atoms: _192  and  _194
REMARK   66  A    between atoms: _194  and  _195
REMARK   67  A    between atoms: _194  and  _197
REMARK   68  A    between atoms: _197  and  _198
REMARK   69  A    between atoms: _201  and  _203
REMARK   70  A    between atoms: _203  and  _204
REMARK   71  A    between atoms: _203  and  _206
REMARK   72  A    between atoms: _209  and  _211
REMARK   73  A    between atoms: _211  and  _212
REMARK   74  A    between atoms: _211  and  _214
REMARK   75  A    between atoms: _214  and  _215
REMARK   76  A    between atoms: _220  and  _222
REMARK   77  A    between atoms: _222  and  _223
REMARK   78  A    between atoms: _222  and  _225
REMARK   79  A    between atoms: _225  and  _226
REMARK   80  A    between atoms: _232  and  _234
REMARK   81  A    between atoms: _234  and  _235
REMARK   82  A    between atoms: _237  and  _239
REMARK   83  A    between atoms: _239  and  _240
REMARK   84  A    between atoms: _239  and  _242
REMARK   85  A    between atoms: _245  and  _247
REMARK   86  A    between atoms: _247  and  _248
REMARK   87  A    between atoms: _247  and  _250
REMARK   88  A    between atoms: _250  and  _251
REMARK   89  A    between atoms: _254  and  _256
REMARK   90  A    between atoms: _256  and  _257
REMARK   91  A    between atoms: _260  and  _262
REMARK   92  A    between atoms: _262  and  _263
REMARK   93  A    between atoms: _262  and  _265
REMARK   94  A    between atoms: _268  and  _270
REMARK   95  A    between atoms: _270  and  _271
REMARK   96  A    between atoms: _270  and  _273
REMARK   97  A    between atoms: _273  and  _274
REMARK   98  A    between atoms: _277  and  _279
REMARK   99  A    between atoms: _279  and  _280
REMARK  100  A    between atoms: _282  and  _284
REMARK  101  A    between atoms: _284  and  _285
REMARK  102  A    between atoms: _287  and  _289
REMARK  103  A    between atoms: _289  and  _290
REMARK  104  A    between atoms: _289  and  _292
REMARK  105  A    between atoms: _292  and  _293
REMARK  106  A    between atoms: _295  and  _297
REMARK  107  A    between atoms: _297  and  _298
REMARK  108  A    between atoms: _297  and  _300
REMARK  109  A    between atoms: _300  and  _301
REMARK  110  A    between atoms: _304  and  _306
REMARK  111  A    between atoms: _306  and  _307
REMARK  112  A    between atoms: _306  and  _309
REMARK  113  A    between atoms: _309  and  _310
REMARK  114  A    between atoms: _313  and  _315
REMARK  115  A    between atoms: _315  and  _316
REMARK  116  A    between atoms: _315  and  _318
REMARK  117  A    between atoms: _318  and  _319
REMARK  118  A    between atoms: _323  and  _324
REMARK  119  A    between atoms: _330  and  _331
REMARK  120  A    between atoms: _336  and  _338
REMARK  121  A    between atoms: _338  and  _339
REMARK  122  A    between atoms: _338  and  _341
REMARK  123  A    between atoms: _341  and  _342
REMARK  124  A    between atoms: _345  and  _347
REMARK  125  A    between atoms: _347  and  _348
REMARK  126  A    between atoms: _347  and  _350
REMARK  127  A    between atoms: _350  and  _351
REMARK  128  A    between atoms: _354  and  _356
REMARK  129  A    between atoms: _356  and  _357
REMARK  130  A    between atoms: _356  and  _359
REMARK  131  A    between atoms: _361  and  _363
REMARK  132  A    between atoms: _363  and  _364
REMARK  133  A    between atoms: _363  and  _366
REMARK  134  A    between atoms: _369  and  _371
REMARK  135  A    between atoms: _371  and  _372
REMARK  136  A    between atoms: _371  and  _374
REMARK  137  A    between atoms: _374  and  _375
REMARK  138  A    between atoms: _385  and  _387
REMARK  139  A    between atoms: _387  and  _388
REMARK  140  A    between atoms: _387  and  _390
REMARK  141  A    between atoms: _390  and  _391
REMARK  142  A    between atoms: _396  and  _398
REMARK  143  A    between atoms: _398  and  _399
REMARK  144  A    between atoms: _398  and  _401
REMARK  145  A    between atoms: _401  and  _402
REMARK  146  A    between atoms: _402  and  _403
REMARK  147  A    between atoms: _403  and  _404
REMARK                            x       y       z     vdW  Elec       q    Type
REMARK                         _______ _______ _______ _____ _____    ______ ____
ROOT
ATOM      1  C   GLU A   1      -5.851  -8.395  20.905  0.00  0.00    +0.238 C 
ATOM      2  O   GLU A   1      -5.062  -8.953  21.663  0.00  0.00    -0.274 OA
ATOM      3  N   HIS A   2      -7.016  -7.932  21.327  0.00  0.00    -0.298 N 
ATOM      4  H   HIS A   2      -7.584  -7.305  20.722  0.00  0.00    +0.150 HD
ENDROOT
BRANCH   1   5
ATOM      5  CA  GLU A   1      -5.529  -8.211  19.417  0.00  0.00    +0.145 C 
BRANCH   5   6
ATOM      6  N   GLU A   1      -6.544  -8.892  18.629  0.00  0.00    -0.238 NA
ATOM      7  H   GLU A   1      -7.409  -8.374  18.374  0.00  0.00    +0.142 HD
ENDBRANCH   5   6
BRANCH   5   8
ATOM      8  CB  GLU A   1      -5.462  -6.739  19.011  0.00  0.00    +0.038 C 
BRANCH   8   9
ATOM      9  CG  GLU A   1      -5.087  -6.614  17.552  0.00  0.00    +0.116 C 
BRANCH   9  10
ATOM     10  CD  GLU A   1      -4.389  -5.332  17.250  0.00  0.00    +0.365 C 
ATOM     11  OE2 GLU A   1      -4.979  -4.266  17.484  0.00  0.00    -0.246 OA
ATOM     12  OE1 GLU A   1      -3.228  -5.386  16.799  0.00  0.00    -0.246 OA
ENDBRANCH   9  10
ENDBRANCH   8   9
ENDBRANCH   5   8
ENDBRANCH   1   5
BRANCH   3  13
ATOM     13  CA  HIS A   2      -7.491  -8.309  22.642  0.00  0.00    +0.143 C 
BRANCH  13  14
ATOM     14  C   HIS A   2      -7.792  -9.793  22.678  0.00  0.00    +0.227 C 
ATOM     15  O   HIS A   2      -8.129 -10.403  21.658  0.00  0.00    -0.286 OA
ENDBRANCH  13  14
BRANCH  13  16
ATOM     16  CB  HIS A   2      -8.716  -7.494  23.041  0.00  0.00    +0.075 C 
BRANCH  16  17
ATOM     17  CG  HIS A   2      -8.415  -6.038  23.198  0.00  0.00    +0.082 A 
ATOM     18  CD2 HIS A   2      -7.958  -5.340  24.267  0.00  0.00    +0.115 A 
ATOM     19  NE2 HIS A   2      -7.781  -4.042  23.862  0.00  0.00    -0.221 NA
ATOM     20  CE1 HIS A   2      -8.106  -3.950  22.584  0.00  0.00    +0.199 A 
ATOM     21  ND1 HIS A   2      -8.483  -5.143  22.152  0.00  0.00    -0.227 NA
ENDBRANCH  16  17
ENDBRANCH  13  16
ENDBRANCH   3  13
TORSDOF 9
REMARK  Name = ../refined-set-2016/4ruy/4ruy_pocket.pdb
REMARK  147 active torsions:
REMARK  status: ('A' for Active; 'I' for Inactive)
REMARK    1  A    between atoms: _1  and  _3
REMARK    2  A    between atoms: _3  and  _4
REMARK    3  A    between atoms: _3  and  _6
REMARK    4  A    between atoms: _6  and  _7
REMARK    5  A    between atoms: _17  and  _19
REMARK    6  A    between atoms: _19  and  _20
REMARK    7  A    between atoms: _19  and  _22
REMARK    8  A    between atoms: _22  and  _23
REMARK    9  A    between atoms: _28  and  _29
REMARK   10  A    between atoms: _31  and  _33
REMARK   11  A    between atoms: _33  and  _34
REMARK   12  A    between atoms: _33  and  _36
REMARK   13  A    between atoms: _36  and  _37
REMARK   14  A    between atoms: _40  and  _41
REMARK   15  A    between atoms: _46  and  _48
REMARK   16  A    between atoms: _48  and  _49
REMARK   17  A    between atoms: _48  and  _51
REMARK   18  A    between atoms: _51  and  _52
REMARK   19  A    between atoms: _57  and  _59
REMARK   20  A    between atoms: _59  and  _60
REMARK   21  A    between atoms: _63  and  _65
REMARK   22  A    between atoms: _65  and  _66
REMARK   23  A    between atoms: _65  and  _68
REMARK   24  A    between atoms: _68  and  _69
REMARK   25  A    between atoms: _74  and  _76
REMARK   26  A    between atoms: _76  and  _77
REMARK   27  A    between atoms: _76  and  _79
REMARK   28  A    between atoms: _79  and  _80
REMARK   29  A    between atoms: _83  and  _85
REMARK   30  A    between atoms: _85  and  _86
REMARK   31  A    between atoms: _85  and  _88
REMARK   32  A    between atoms: _88  and  _89
REMARK   33  A    between atoms: _89  and  _90
REMARK   34  A    between atoms: _95  and  _97
REMARK   35  A    between atoms: _97  and  _98
REMARK   36  A    between atoms: _97  and  _100
REMARK   37  A    between atoms: _100  and  _101
REMARK   38  A    between atoms: _107  and  _109
REMARK   39  A    between atoms: _120  and  _123
REMARK   40  A    between atoms: _123  and  _124
REMARK   41  A    between atoms: _132  and  _133
REMARK   42  A    between atoms: _141  and  _143
REMARK   43  A    between atoms: _143  and  _144
REMARK   44  A    between atoms: _143  and  _146
REMARK   45  A    between atoms: _146  and  _147
REMARK   46  A    between atoms: _147  and  _148
REMARK   47  A    between atoms: _151  and  _153
REMARK   48  A    between atoms: _153  and  _154
REMARK   49  A    between atoms: _153  and  _156
REMARK   50  A    between atoms: _156  and  _157
REMARK   51  A    between atoms: _162  and  _164
REMARK   52  A    between atoms: _164  and  _165
REMARK   53  A    between atoms: _164  and  _167
REMARK   54  A    between atoms: _167  and  _168
REMARK   55  A    between atoms: _168  and  _169
REMARK   56  A    between atoms: _172  and  _174
REMARK   57  A    between atoms: _174  and  _175
REMARK   58  A    between atoms: _174  and  _177
REMARK   59  A    between atoms: _177  and  _178
REMARK   60  A    between atoms: _181  and  _183
REMARK   61  A    between atoms: _183  and  _184
REMARK   62  A    between atoms: _183  and  _186
REMARK   63  A    between atoms: _186  and  _187
REMARK   64  A    between atoms: _188  and  ZN_413
REMARK   65  A    between atoms: _192  and  _194
REMARK   66  A    between atoms: _194  and  _195
REMARK   67  A    between atoms: _194  and  _197
REMARK   68  A    between atoms: _197  and  _198
REMARK   69  A    between atoms: _201  and  _203
REMARK   70  A    between atoms: _203  and  _204
REMARK   71  A    between atoms: _203  and  _206
REMARK   72  A    between atoms: _209  and  _211
REMARK   73  A    between atoms: _211  and  _212
REMARK   74  A    between atoms: _211  and  _214
REMARK   75  A    between atoms: _214  and  _215
REMARK   76  A    between atoms: _220  and  _222
REMARK   77  A    between atoms: _222  and  _223
REMARK   78  A    between atoms: _222  and  _225
REMARK   79  A    between atoms: _225  and  _226
REMARK   80  A    between atoms: _232  and  _234
REMARK   81  A    between atoms: _234  and  _235
REMARK   82  A    between atoms: _237  and  _239
REMARK   83  A    between atoms: _239  and  _240
REMARK   84  A    between atoms: _239  and  _242
REMARK   85  A    between atoms: _245  and  _247
REMARK   86  A    between atoms: _247  and  _248
REMARK   87  A    between atoms: _247  and  _250
REMARK   88  A    between atoms: _250  and  _251
REMARK   89  A    between atoms: _254  and  _256
REMARK   90  A    between atoms: _256  and  _257
REMARK   91  A    between atoms: _260  and  _262
REMARK   92  A    between atoms: _262  and  _263
REMARK   93  A    between atoms: _262  and  _265
REMARK   94  A    between atoms: _268  and  _270
REMARK   95  A    between atoms: _270  and  _271
REMARK   96  A    between atoms: _270  and  _273
REMARK   97  A    between atoms: _273  and  _274
REMARK   98  A    between atoms: _277  and  _279
REMARK   99  A    between atoms: _279  and  _280
REMARK  100  A    between atoms: _282  and  _284
REMARK  101  A    between atoms: _284  and  _285
REMARK  102  A    between atoms: _287  and  _289
REMARK  103  A    between atoms: _289  and  _290
REMARK  104  A    between atoms: _289  and  _292
REMARK  105  A    between atoms: _292  and  _293
REMARK  106  A    between atoms: _295  and  _297
REMARK  107  A    between atoms: _297  and  _298
REMARK  108  A    between atoms: _297  and  _300
REMARK  109  A    between atoms: _300  and  _301
REMARK  110  A    between atoms: _304  and  _306
REMARK  111  A    between atoms: _306  and  _307
REMARK  112  A    between atoms: _306  and  _309
REMARK  113  A    between atoms: _309  and  _310
REMARK  114  A    between atoms: _313  and  _315
REMARK  115  A    between atoms: _315  and  _316
REMARK  116  A    between atoms: _315  and  _318
REMARK  117  A    between atoms: _318  and  _319
REMARK  118  A    between atoms: _323  and  _324
REMARK  119  A    between atoms: _330  and  _331
REMARK  120  A    between atoms: _336  and  _338
REMARK  121  A    between atoms: _338  and  _339
REMARK  122  A    between atoms: _338  and  _341
REMARK  123  A    between atoms: _341  and  _342
REMARK  124  A    between atoms: _345  and  _347
REMARK  125  A    between atoms: _347  and  _348
REMARK  126  A    between atoms: _347  and  _350
REMARK  127  A    between atoms: _350  and  _351
REMARK  128  A    between atoms: _354  and  _356
REMARK  129  A    between atoms: _356  and  _357
REMARK  130  A    between atoms: _356  and  _359
REMARK  131  A    between atoms: _361  and  _363
REMARK  132  A    between atoms: _363  and  _364
REMARK  133  A    between atoms: _363  and  _366
REMARK  134  A    between atoms: _369  and  _371
REMARK  135  A    between atoms: _371  and  _372
REMARK  136  A    between atoms: _371  and  _374
REMARK  137  A    between atoms: _374  and  _375
REMARK  138  A    between atoms: _385  and  _387
REMARK  139  A    between atoms: _387  and  _388
REMARK  140  A    between atoms: _387  and  _390
REMARK  141  A    between atoms: _390  and  _391
REMARK  142  A    between atoms: _396  and  _398
REMARK  143  A    between atoms: _398  and  _399
REMARK  144  A    between atoms: _398  and  _401
REMARK  145  A    between atoms: _401  and  _402
REMARK  146  A    between atoms: _402  and  _403
REMARK  147  A    between atoms: _403  and  _404
REMARK                            x       y       z     vdW  Elec       q    Type
REMARK                         _______ _______ _______ _____ _____    ______ ____
ROOT
ATOM      1  CA  PHE A   1      -7.685  13.489  14.969  0.00  0.00    +0.149 C 
ENDROOT
BRANCH   1   2
ATOM      2  C   PHE A   1      -6.218  13.657  15.374  0.00  0.00    +0.239 C 
ATOM      3  O   PHE A   1      -5.783  13.082  16.371  0.00  0.00    -0.274 OA
ATOM      4  N   GLY A   2      -5.458  14.445  14.614  0.00  0.00    -0.297 N 
ATOM      5  H   GLY A   2      -5.888  14.954  13.815  0.00  0.00    +0.150 HD
BRANCH   4   6
ATOM      6  CA  GLY A   2      -4.036  14.606  14.883  0.00  0.00    +0.163 C 
BRANCH   6   7
ATOM      7  C   GLY A   2      -3.752  15.222  16.239  0.00  0.00    +0.229 C 
ATOM      8  O   GLY A   2      -2.792  14.869  16.917  0.00  0.00    -0.286 OA
ENDBRANCH   6   7
ENDBRANCH   4   6
ENDBRANCH   1   2
BRANCH   1   9
ATOM      9  N   PHE A   1      -8.277  14.757  14.583  0.00  0.00    -0.238 NA
ATOM     10  H   PHE A   1      -8.748  14.877  13.664  0.00  0.00    +0.142 HD
ENDBRANCH   1   9
BRANCH   1  11
ATOM     11  CB  PHE A   1      -7.841  12.502  13.816  0.00  0.00    +0.053 C 
BRANCH  11  12
ATOM     12  CG  PHE A   1      -7.158  11.193  14.040  0.00  0.00    -0.020 A 
ATOM     13  CD2 PHE A   1      -7.785  10.177  14.748  0.00  0.00    -0.004 A 
ATOM     14  CE2 PHE A   1      -7.150   8.955  14.949  0.00  0.00    -0.000 A 
ATOM     15  CZ  PHE A   1      -5.880   8.754  14.460  0.00  0.00    -0.000 A 
ATOM     16  CE1 PHE A   1      -5.239   9.757  13.761  0.00  0.00    -0.000 A 
ATOM     17  CD1 PHE A   1      -5.879  10.971  13.553  0.00  0.00    -0.004 A 
ENDBRANCH  11  12
ENDBRANCH   1  11
TORSDOF 6
REMARK  Name = ../refined-set-2016/4ruy/4ruy_pocket.pdb
REMARK  147 active torsions:
REMARK  status: ('A' for Active; 'I' for Inactive)
REMARK    1  A    between atoms: _1  and  _3
REMARK    2  A    between atoms: _3  and  _4
REMARK    3  A    between atoms: _3  and  _6
REMARK    4  A    between atoms: _6  and  _7
REMARK    5  A    between atoms: _17  and  _19
REMARK    6  A    between atoms: _19  and  _20
REMARK    7  A    between atoms: _19  and  _22
REMARK    8  A    between atoms: _22  and  _23
REMARK    9  A    between atoms: _28  and  _29
REMARK   10  A    between atoms: _31  and  _33
REMARK   11  A    between atoms: _33  and  _34
REMARK   12  A    between atoms: _33  and  _36
REMARK   13  A    between atoms: _36  and  _37
REMARK   14  A    between atoms: _40  and  _41
REMARK   15  A    between atoms: _46  and  _48
REMARK   16  A    between atoms: _48  and  _49
REMARK   17  A    between atoms: _48  and  _51
REMARK   18  A    between atoms: _51  and  _52
REMARK   19  A    between atoms: _57  and  _59
REMARK   20  A    between atoms: _59  and  _60
REMARK   21  A    between atoms: _63  and  _65
REMARK   22  A    between atoms: _65  and  _66
REMARK   23  A    between atoms: _65  and  _68
REMARK   24  A    between atoms: _68  and  _69
REMARK   25  A    between atoms: _74  and  _76
REMARK   26  A    between atoms: _76  and  _77
REMARK   27  A    between atoms: _76  and  _79
REMARK   28  A    between atoms: _79  and  _80
REMARK   29  A    between atoms: _83  and  _85
REMARK   30  A    between atoms: _85  and  _86
REMARK   31  A    between atoms: _85  and  _88
REMARK   32  A    between atoms: _88  and  _89
REMARK   33  A    between atoms: _89  and  _90
REMARK   34  A    between atoms: _95  and  _97
REMARK   35  A    between atoms: _97  and  _98
REMARK   36  A    between atoms: _97  and  _100
REMARK   37  A    between atoms: _100  and  _101
REMARK   38  A    between atoms: _107  and  _109
REMARK   39  A    between atoms: _120  and  _123
REMARK   40  A    between atoms: _123  and  _124
REMARK   41  A    between atoms: _132  and  _133
REMARK   42  A    between atoms: _141  and  _143
REMARK   43  A    between atoms: _143  and  _144
REMARK   44  A    between atoms: _143  and  _146
REMARK   45  A    between atoms: _146  and  _147
REMARK   46  A    between atoms: _147  and  _148
REMARK   47  A    between atoms: _151  and  _153
REMARK   48  A    between atoms: _153  and  _154
REMARK   49  A    between atoms: _153  and  _156
REMARK   50  A    between atoms: _156  and  _157
REMARK   51  A    between atoms: _162  and  _164
REMARK   52  A    between atoms: _164  and  _165
REMARK   53  A    between atoms: _164  and  _167
REMARK   54  A    between atoms: _167  and  _168
REMARK   55  A    between atoms: _168  and  _169
REMARK   56  A    between atoms: _172  and  _174
REMARK   57  A    between atoms: _174  and  _175
REMARK   58  A    between atoms: _174  and  _177
REMARK   59  A    between atoms: _177  and  _178
REMARK   60  A    between atoms: _181  and  _183
REMARK   61  A    between atoms: _183  and  _184
REMARK   62  A    between atoms: _183  and  _186
REMARK   63  A    between atoms: _186  and  _187
REMARK   64  A    between atoms: _188  and  ZN_413
REMARK   65  A    between atoms: _192  and  _194
REMARK   66  A    between atoms: _194  and  _195
REMARK   67  A    between atoms: _194  and  _197
REMARK   68  A    between atoms: _197  and  _198
REMARK   69  A    between atoms: _201  and  _203
REMARK   70  A    between atoms: _203  and  _204
REMARK   71  A    between atoms: _203  and  _206
REMARK   72  A    between atoms: _209  and  _211
REMARK   73  A    between atoms: _211  and  _212
REMARK   74  A    between atoms: _211  and  _214
REMARK   75  A    between atoms: _214  and  _215
REMARK   76  A    between atoms: _220  and  _222
REMARK   77  A    between atoms: _222  and  _223
REMARK   78  A    between atoms: _222  and  _225
REMARK   79  A    between atoms: _225  and  _226
REMARK   80  A    between atoms: _232  and  _234
REMARK   81  A    between atoms: _234  and  _235
REMARK   82  A    between atoms: _237  and  _239
REMARK   83  A    between atoms: _239  and  _240
REMARK   84  A    between atoms: _239  and  _242
REMARK   85  A    between atoms: _245  and  _247
REMARK   86  A    between atoms: _247  and  _248
REMARK   87  A    between atoms: _247  and  _250
REMARK   88  A    between atoms: _250  and  _251
REMARK   89  A    between atoms: _254  and  _256
REMARK   90  A    between atoms: _256  and  _257
REMARK   91  A    between atoms: _260  and  _262
REMARK   92  A    between atoms: _262  and  _263
REMARK   93  A    between atoms: _262  and  _265
REMARK   94  A    between atoms: _268  and  _270
REMARK   95  A    between atoms: _270  and  _271
REMARK   96  A    between atoms: _270  and  _273
REMARK   97  A    between atoms: _273  and  _274
REMARK   98  A    between atoms: _277  and  _279
REMARK   99  A    between atoms: _279  and  _280
REMARK  100  A    between atoms: _282  and  _284
REMARK  101  A    between atoms: _284  and  _285
REMARK  102  A    between atoms: _287  and  _289
REMARK  103  A    between atoms: _289  and  _290
REMARK  104  A    between atoms: _289  and  _292
REMARK  105  A    between atoms: _292  and  _293
REMARK  106  A    between atoms: _295  and  _297
REMARK  107  A    between atoms: _297  and  _298
REMARK  108  A    between atoms: _297  and  _300
REMARK  109  A    between atoms: _300  and  _301
REMARK  110  A    between atoms: _304  and  _306
REMARK  111  A    between atoms: _306  and  _307
REMARK  112  A    between atoms: _306  and  _309
REMARK  113  A    between atoms: _309  and  _310
REMARK  114  A    between atoms: _313  and  _315
REMARK  115  A    between atoms: _315  and  _316
REMARK  116  A    between atoms: _315  and  _318
REMARK  117  A    between atoms: _318  and  _319
REMARK  118  A    between atoms: _323  and  _324
REMARK  119  A    between atoms: _330  and  _331
REMARK  120  A    between atoms: _336  and  _338
REMARK  121  A    between atoms: _338  and  _339
REMARK  122  A    between atoms: _338  and  _341
REMARK  123  A    between atoms: _341  and  _342
REMARK  124  A    between atoms: _345  and  _347
REMARK  125  A    between atoms: _347  and  _348
REMARK  126  A    between atoms: _347  and  _350
REMARK  127  A    between atoms: _350  and  _351
REMARK  128  A    between atoms: _354  and  _356
REMARK  129  A    between atoms: _356  and  _357
REMARK  130  A    between atoms: _356  and  _359
REMARK  131  A    between atoms: _361  and  _363
REMARK  132  A    between atoms: _363  and  _364
REMARK  133  A    between atoms: _363  and  _366
REMARK  134  A    between atoms: _369  and  _371
REMARK  135  A    between atoms: _371  and  _372
REMARK  136  A    between atoms: _371  and  _374
REMARK  137  A    between atoms: _374  and  _375
REMARK  138  A    between atoms: _385  and  _387
REMARK  139  A    between atoms: _387  and  _388
REMARK  140  A    between atoms: _387  and  _390
REMARK  141  A    between atoms: _390  and  _391
REMARK  142  A    between atoms: _396  and  _398
REMARK  143  A    between atoms: _398  and  _399
REMARK  144  A    between atoms: _398  and  _401
REMARK  145  A    between atoms: _401  and  _402
REMARK  146  A    between atoms: _402  and  _403
REMARK  147  A    between atoms: _403  and  _404
REMARK                            x       y       z     vdW  Elec       q    Type
REMARK                         _______ _______ _______ _____ _____    ______ ____
ROOT
ATOM      1  CA  VAL A   1      -3.938  11.405  19.563  0.00  0.00    +0.133 C 
ENDROOT
BRANCH   1   2
ATOM      2  CB  VAL A   1      -3.323  10.685  18.339  0.00  0.00    +0.023 C 
ATOM      3  CG2 VAL A   1      -2.451  11.627  17.513  0.00  0.00    +0.002 C 
ATOM      4  CG1 VAL A   1      -4.422  10.064  17.489  0.00  0.00    +0.002 C 
ENDBRANCH   1   2
BRANCH   1   5
ATOM      5  N   VAL A   1      -4.849  12.499  19.198  0.00  0.00    -0.239 NA
ATOM      6  H   VAL A   1      -4.875  12.852  18.220  0.00  0.00    +0.142 HD
ENDBRANCH   1   5
BRANCH   1   7
ATOM      7  C   VAL A   1      -2.830  11.836  20.522  0.00  0.00    +0.224 C 
ATOM      8  O   VAL A   1      -2.117  10.999  21.074  0.00  0.00    -0.287 OA
ENDBRANCH   1   7
TORSDOF 3
REMARK  Name = ../refined-set-2016/4ruy/4ruy_pocket.pdb
REMARK  147 active torsions:
REMARK  status: ('A' for Active; 'I' for Inactive)
REMARK    1  A    between atoms: _1  and  _3
REMARK    2  A    between atoms: _3  and  _4
REMARK    3  A    between atoms: _3  and  _6
REMARK    4  A    between atoms: _6  and  _7
REMARK    5  A    between atoms: _17  and  _19
REMARK    6  A    between atoms: _19  and  _20
REMARK    7  A    between atoms: _19  and  _22
REMARK    8  A    between atoms: _22  and  _23
REMARK    9  A    between atoms: _28  and  _29
REMARK   10  A    between atoms: _31  and  _33
REMARK   11  A    between atoms: _33  and  _34
REMARK   12  A    between atoms: _33  and  _36
REMARK   13  A    between atoms: _36  and  _37
REMARK   14  A    between atoms: _40  and  _41
REMARK   15  A    between atoms: _46  and  _48
REMARK   16  A    between atoms: _48  and  _49
REMARK   17  A    between atoms: _48  and  _51
REMARK   18  A    between atoms: _51  and  _52
REMARK   19  A    between atoms: _57  and  _59
REMARK   20  A    between atoms: _59  and  _60
REMARK   21  A    between atoms: _63  and  _65
REMARK   22  A    between atoms: _65  and  _66
REMARK   23  A    between atoms: _65  and  _68
REMARK   24  A    between atoms: _68  and  _69
REMARK   25  A    between atoms: _74  and  _76
REMARK   26  A    between atoms: _76  and  _77
REMARK   27  A    between atoms: _76  and  _79
REMARK   28  A    between atoms: _79  and  _80
REMARK   29  A    between atoms: _83  and  _85
REMARK   30  A    between atoms: _85  and  _86
REMARK   31  A    between atoms: _85  and  _88
REMARK   32  A    between atoms: _88  and  _89
REMARK   33  A    between atoms: _89  and  _90
REMARK   34  A    between atoms: _95  and  _97
REMARK   35  A    between atoms: _97  and  _98
REMARK   36  A    between atoms: _97  and  _100
REMARK   37  A    between atoms: _100  and  _101
REMARK   38  A    between atoms: _107  and  _109
REMARK   39  A    between atoms: _120  and  _123
REMARK   40  A    between atoms: _123  and  _124
REMARK   41  A    between atoms: _132  and  _133
REMARK   42  A    between atoms: _141  and  _143
REMARK   43  A    between atoms: _143  and  _144
REMARK   44  A    between atoms: _143  and  _146
REMARK   45  A    between atoms: _146  and  _147
REMARK   46  A    between atoms: _147  and  _148
REMARK   47  A    between atoms: _151  and  _153
REMARK   48  A    between atoms: _153  and  _154
REMARK   49  A    between atoms: _153  and  _156
REMARK   50  A    between atoms: _156  and  _157
REMARK   51  A    between atoms: _162  and  _164
REMARK   52  A    between atoms: _164  and  _165
REMARK   53  A    between atoms: _164  and  _167
REMARK   54  A    between atoms: _167  and  _168
REMARK   55  A    between atoms: _168  and  _169
REMARK   56  A    between atoms: _172  and  _174
REMARK   57  A    between atoms: _174  and  _175
REMARK   58  A    between atoms: _174  and  _177
REMARK   59  A    between atoms: _177  and  _178
REMARK   60  A    between atoms: _181  and  _183
REMARK   61  A    between atoms: _183  and  _184
REMARK   62  A    between atoms: _183  and  _186
REMARK   63  A    between atoms: _186  and  _187
REMARK   64  A    between atoms: _188  and  ZN_413
REMARK   65  A    between atoms: _192  and  _194
REMARK   66  A    between atoms: _194  and  _195
REMARK   67  A    between atoms: _194  and  _197
REMARK   68  A    between atoms: _197  and  _198
REMARK   69  A    between atoms: _201  and  _203
REMARK   70  A    between atoms: _203  and  _204
REMARK   71  A    between atoms: _203  and  _206
REMARK   72  A    between atoms: _209  and  _211
REMARK   73  A    between atoms: _211  and  _212
REMARK   74  A    between atoms: _211  and  _214
REMARK   75  A    between atoms: _214  and  _215
REMARK   76  A    between atoms: _220  and  _222
REMARK   77  A    between atoms: _222  and  _223
REMARK   78  A    between atoms: _222  and  _225
REMARK   79  A    between atoms: _225  and  _226
REMARK   80  A    between atoms: _232  and  _234
REMARK   81  A    between atoms: _234  and  _235
REMARK   82  A    between atoms: _237  and  _239
REMARK   83  A    between atoms: _239  and  _240
REMARK   84  A    between atoms: _239  and  _242
REMARK   85  A    between atoms: _245  and  _247
REMARK   86  A    between atoms: _247  and  _248
REMARK   87  A    between atoms: _247  and  _250
REMARK   88  A    between atoms: _250  and  _251
REMARK   89  A    between atoms: _254  and  _256
REMARK   90  A    between atoms: _256  and  _257
REMARK   91  A    between atoms: _260  and  _262
REMARK   92  A    between atoms: _262  and  _263
REMARK   93  A    between atoms: _262  and  _265
REMARK   94  A    between atoms: _268  and  _270
REMARK   95  A    between atoms: _270  and  _271
REMARK   96  A    between atoms: _270  and  _273
REMARK   97  A    between atoms: _273  and  _274
REMARK   98  A    between atoms: _277  and  _279
REMARK   99  A    between atoms: _279  and  _280
REMARK  100  A    between atoms: _282  and  _284
REMARK  101  A    between atoms: _284  and  _285
REMARK  102  A    between atoms: _287  and  _289
REMARK  103  A    between atoms: _289  and  _290
REMARK  104  A    between atoms: _289  and  _292
REMARK  105  A    between atoms: _292  and  _293
REMARK  106  A    between atoms: _295  and  _297
REMARK  107  A    between atoms: _297  and  _298
REMARK  108  A    between atoms: _297  and  _300
REMARK  109  A    between atoms: _300  and  _301
REMARK  110  A    between atoms: _304  and  _306
REMARK  111  A    between atoms: _306  and  _307
REMARK  112  A    between atoms: _306  and  _309
REMARK  113  A    between atoms: _309  and  _310
REMARK  114  A    between atoms: _313  and  _315
REMARK  115  A    between atoms: _315  and  _316
REMARK  116  A    between atoms: _315  and  _318
REMARK  117  A    between atoms: _318  and  _319
REMARK  118  A    between atoms: _323  and  _324
REMARK  119  A    between atoms: _330  and  _331
REMARK  120  A    between atoms: _336  and  _338
REMARK  121  A    between atoms: _338  and  _339
REMARK  122  A    between atoms: _338  and  _341
REMARK  123  A    between atoms: _341  and  _342
REMARK  124  A    between atoms: _345  and  _347
REMARK  125  A    between atoms: _347  and  _348
REMARK  126  A    between atoms: _347  and  _350
REMARK  127  A    between atoms: _350  and  _351
REMARK  128  A    between atoms: _354  and  _356
REMARK  129  A    between atoms: _356  and  _357
REMARK  130  A    between atoms: _356  and  _359
REMARK  131  A    between atoms: _361  and  _363
REMARK  132  A    between atoms: _363  and  _364
REMARK  133  A    between atoms: _363  and  _366
REMARK  134  A    between atoms: _369  and  _371
REMARK  135  A    between atoms: _371  and  _372
REMARK  136  A    between atoms: _371  and  _374
REMARK  137  A    between atoms: _374  and  _375
REMARK  138  A    between atoms: _385  and  _387
REMARK  139  A    between atoms: _387  and  _388
REMARK  140  A    between atoms: _387  and  _390
REMARK  141  A    between atoms: _390  and  _391
REMARK  142  A    between atoms: _396  and  _398
REMARK  143  A    between atoms: _398  and  _399
REMARK  144  A    between atoms: _398  and  _401
REMARK  145  A    between atoms: _401  and  _402
REMARK  146  A    between atoms: _402  and  _403
REMARK  147  A    between atoms: _403  and  _404
REMARK                            x       y       z     vdW  Elec       q    Type
REMARK                         _______ _______ _______ _____ _____    ______ ____
ROOT
ATOM      1  CA  VAL A   3     -11.909   2.739  19.942  0.00  0.00    +0.149 C 
ENDROOT
BRANCH   1   3
ATOM      2  C   ALA A   2     -12.352   4.998  20.687  0.00  0.00    +0.241 C 
ATOM      3  N   VAL A   3     -11.849   3.793  20.943  0.00  0.00    -0.297 N 
ATOM      4  H   VAL A   3     -11.409   3.603  21.866  0.00  0.00    +0.150 HD
ATOM      5  O   ALA A   2     -12.802   5.330  19.581  0.00  0.00    -0.273 OA
BRANCH   2   6
ATOM      6  CA  ALA A   2     -12.314   6.001  21.820  0.00  0.00    +0.149 C 
ATOM      7  CB  ALA A   2     -13.715   6.412  22.218  0.00  0.00    +0.031 C 
BRANCH   6  10
ATOM      8  C   LEU A   1     -10.505   7.615  21.947  0.00  0.00    +0.238 C 
ATOM      9  O   LEU A   1     -10.212   7.316  23.105  0.00  0.00    -0.274 OA
ATOM     10  N   ALA A   2     -11.559   7.131  21.306  0.00  0.00    -0.297 N 
ATOM     11  H   ALA A   2     -11.854   7.572  20.411  0.00  0.00    +0.150 HD
BRANCH   8  12
ATOM     12  CA  LEU A   1      -9.628   8.544  21.140  0.00  0.00    +0.145 C 
BRANCH  12  13
ATOM     13  N   LEU A   1      -8.925   9.501  21.995  0.00  0.00    -0.238 NA
ATOM     14  H   LEU A   1      -8.316   9.143  22.758  0.00  0.00    +0.142 HD
ENDBRANCH  12  13
BRANCH  12  15
ATOM     15  CB  LEU A   1      -8.640   7.676  20.363  0.00  0.00    +0.026 C 
BRANCH  15  16
ATOM     16  CG  LEU A   1      -7.739   8.334  19.322  0.00  0.00    +0.002 C 
ATOM     17  CD2 LEU A   1      -7.068   7.265  18.476  0.00  0.00    +0.000 C 
ATOM     18  CD1 LEU A   1      -8.449   9.376  18.453  0.00  0.00    +0.000 C 
ENDBRANCH  15  16
ENDBRANCH  12  15
ENDBRANCH   8  12
ENDBRANCH   6  10
ENDBRANCH   2   6
ENDBRANCH   1   3
BRANCH   1  19
ATOM     19  C   VAL A   3     -12.862   1.674  20.440  0.00  0.00    +0.241 C 
ATOM     20  O   VAL A   3     -12.720   1.158  21.555  0.00  0.00    -0.273 OA
ATOM     21  N   LEU A   4     -13.869   1.409  19.619  0.00  0.00    -0.297 N 
ATOM     22  H   LEU A   4     -13.965   1.978  18.754  0.00  0.00    +0.150 HD
BRANCH  21  23
ATOM     23  CA  LEU A   4     -14.840   0.366  19.870  0.00  0.00    +0.149 C 
BRANCH  23  24
ATOM     24  C   LEU A   4     -14.328  -0.896  19.183  0.00  0.00    +0.241 C 
ATOM     25  N   GLY A   5     -14.012  -1.911  19.988  0.00  0.00    -0.296 N 
ATOM     26  H   GLY A   5     -14.164  -1.806  21.011  0.00  0.00    +0.150 HD
ATOM     27  O   LEU A   4     -14.180  -0.926  17.955  0.00  0.00    -0.273 OA
BRANCH  25  28
ATOM     28  CA  GLY A   5     -13.464  -3.155  19.486  0.00  0.00    +0.163 C 
BRANCH  28  29
ATOM     29  C   GLY A   5     -14.509  -4.246  19.505  0.00  0.00    +0.229 C 
ATOM     30  O   GLY A   5     -15.247  -4.399  20.487  0.00  0.00    -0.286 OA
ENDBRANCH  28  29
ENDBRANCH  25  28
ENDBRANCH  23  24
BRANCH  23  31
ATOM     31  CB  LEU A   4     -16.189   0.801  19.307  0.00  0.00    +0.029 C 
BRANCH  31  32
ATOM     32  CG  LEU A   4     -17.360  -0.161  19.467  0.00  0.00    +0.002 C 
ATOM     33  CD2 LEU A   4     -17.599  -0.472  20.936  0.00  0.00    +0.000 C 
ATOM     34  CD1 LEU A   4     -18.597   0.425  18.811  0.00  0.00    +0.000 C 
ENDBRANCH  31  32
ENDBRANCH  23  31
ENDBRANCH  21  23
ENDBRANCH   1  19
BRANCH   1  35
ATOM     35  CB  VAL A   3     -10.526   2.153  19.589  0.00  0.00    +0.027 C 
ATOM     36  CG2 VAL A   3      -9.573   3.267  19.175  0.00  0.00    +0.002 C 
ATOM     37  CG1 VAL A   3     -10.677   1.156  18.464  0.00  0.00    +0.002 C 
ENDBRANCH   1  35
TORSDOF 15
REMARK  Name = ../refined-set-2016/4ruy/4ruy_pocket.pdb
REMARK  147 active torsions:
REMARK  status: ('A' for Active; 'I' for Inactive)
REMARK    1  A    between atoms: _1  and  _3
REMARK    2  A    between atoms: _3  and  _4
REMARK    3  A    between atoms: _3  and  _6
REMARK    4  A    between atoms: _6  and  _7
REMARK    5  A    between atoms: _17  and  _19
REMARK    6  A    between atoms: _19  and  _20
REMARK    7  A    between atoms: _19  and  _22
REMARK    8  A    between atoms: _22  and  _23
REMARK    9  A    between atoms: _28  and  _29
REMARK   10  A    between atoms: _31  and  _33
REMARK   11  A    between atoms: _33  and  _34
REMARK   12  A    between atoms: _33  and  _36
REMARK   13  A    between atoms: _36  and  _37
REMARK   14  A    between atoms: _40  and  _41
REMARK   15  A    between atoms: _46  and  _48
REMARK   16  A    between atoms: _48  and  _49
REMARK   17  A    between atoms: _48  and  _51
REMARK   18  A    between atoms: _51  and  _52
REMARK   19  A    between atoms: _57  and  _59
REMARK   20  A    between atoms: _59  and  _60
REMARK   21  A    between atoms: _63  and  _65
REMARK   22  A    between atoms: _65  and  _66
REMARK   23  A    between atoms: _65  and  _68
REMARK   24  A    between atoms: _68  and  _69
REMARK   25  A    between atoms: _74  and  _76
REMARK   26  A    between atoms: _76  and  _77
REMARK   27  A    between atoms: _76  and  _79
REMARK   28  A    between atoms: _79  and  _80
REMARK   29  A    between atoms: _83  and  _85
REMARK   30  A    between atoms: _85  and  _86
REMARK   31  A    between atoms: _85  and  _88
REMARK   32  A    between atoms: _88  and  _89
REMARK   33  A    between atoms: _89  and  _90
REMARK   34  A    between atoms: _95  and  _97
REMARK   35  A    between atoms: _97  and  _98
REMARK   36  A    between atoms: _97  and  _100
REMARK   37  A    between atoms: _100  and  _101
REMARK   38  A    between atoms: _107  and  _109
REMARK   39  A    between atoms: _120  and  _123
REMARK   40  A    between atoms: _123  and  _124
REMARK   41  A    between atoms: _132  and  _133
REMARK   42  A    between atoms: _141  and  _143
REMARK   43  A    between atoms: _143  and  _144
REMARK   44  A    between atoms: _143  and  _146
REMARK   45  A    between atoms: _146  and  _147
REMARK   46  A    between atoms: _147  and  _148
REMARK   47  A    between atoms: _151  and  _153
REMARK   48  A    between atoms: _153  and  _154
REMARK   49  A    between atoms: _153  and  _156
REMARK   50  A    between atoms: _156  and  _157
REMARK   51  A    between atoms: _162  and  _164
REMARK   52  A    between atoms: _164  and  _165
REMARK   53  A    between atoms: _164  and  _167
REMARK   54  A    between atoms: _167  and  _168
REMARK   55  A    between atoms: _168  and  _169
REMARK   56  A    between atoms: _172  and  _174
REMARK   57  A    between atoms: _174  and  _175
REMARK   58  A    between atoms: _174  and  _177
REMARK   59  A    between atoms: _177  and  _178
REMARK   60  A    between atoms: _181  and  _183
REMARK   61  A    between atoms: _183  and  _184
REMARK   62  A    between atoms: _183  and  _186
REMARK   63  A    between atoms: _186  and  _187
REMARK   64  A    between atoms: _188  and  ZN_413
REMARK   65  A    between atoms: _192  and  _194
REMARK   66  A    between atoms: _194  and  _195
REMARK   67  A    between atoms: _194  and  _197
REMARK   68  A    between atoms: _197  and  _198
REMARK   69  A    between atoms: _201  and  _203
REMARK   70  A    between atoms: _203  and  _204
REMARK   71  A    between atoms: _203  and  _206
REMARK   72  A    between atoms: _209  and  _211
REMARK   73  A    between atoms: _211  and  _212
REMARK   74  A    between atoms: _211  and  _214
REMARK   75  A    between atoms: _214  and  _215
REMARK   76  A    between atoms: _220  and  _222
REMARK   77  A    between atoms: _222  and  _223
REMARK   78  A    between atoms: _222  and  _225
REMARK   79  A    between atoms: _225  and  _226
REMARK   80  A    between atoms: _232  and  _234
REMARK   81  A    between atoms: _234  and  _235
REMARK   82  A    between atoms: _237  and  _239
REMARK   83  A    between atoms: _239  and  _240
REMARK   84  A    between atoms: _239  and  _242
REMARK   85  A    between atoms: _245  and  _247
REMARK   86  A    between atoms: _247  and  _248
REMARK   87  A    between atoms: _247  and  _250
REMARK   88  A    between atoms: _250  and  _251
REMARK   89  A    between atoms: _254  and  _256
REMARK   90  A    between atoms: _256  and  _257
REMARK   91  A    between atoms: _260  and  _262
REMARK   92  A    between atoms: _262  and  _263
REMARK   93  A    between atoms: _262  and  _265
REMARK   94  A    between atoms: _268  and  _270
REMARK   95  A    between atoms: _270  and  _271
REMARK   96  A    between atoms: _270  and  _273
REMARK   97  A    between atoms: _273  and  _274
REMARK   98  A    between atoms: _277  and  _279
REMARK   99  A    between atoms: _279  and  _280
REMARK  100  A    between atoms: _282  and  _284
REMARK  101  A    between atoms: _284  and  _285
REMARK  102  A    between atoms: _287  and  _289
REMARK  103  A    between atoms: _289  and  _290
REMARK  104  A    between atoms: _289  and  _292
REMARK  105  A    between atoms: _292  and  _293
REMARK  106  A    between atoms: _295  and  _297
REMARK  107  A    between atoms: _297  and  _298
REMARK  108  A    between atoms: _297  and  _300
REMARK  109  A    between atoms: _300  and  _301
REMARK  110  A    between atoms: _304  and  _306
REMARK  111  A    between atoms: _306  and  _307
REMARK  112  A    between atoms: _306  and  _309
REMARK  113  A    between atoms: _309  and  _310
REMARK  114  A    between atoms: _313  and  _315
REMARK  115  A    between atoms: _315  and  _316
REMARK  116  A    between atoms: _315  and  _318
REMARK  117  A    between atoms: _318  and  _319
REMARK  118  A    between atoms: _323  and  _324
REMARK  119  A    between atoms: _330  and  _331
REMARK  120  A    between atoms: _336  and  _338
REMARK  121  A    between atoms: _338  and  _339
REMARK  122  A    between atoms: _338  and  _341
REMARK  123  A    between atoms: _341  and  _342
REMARK  124  A    between atoms: _345  and  _347
REMARK  125  A    between atoms: _347  and  _348
REMARK  126  A    between atoms: _347  and  _350
REMARK  127  A    between atoms: _350  and  _351
REMARK  128  A    between atoms: _354  and  _356
REMARK  129  A    between atoms: _356  and  _357
REMARK  130  A    between atoms: _356  and  _359
REMARK  131  A    between atoms: _361  and  _363
REMARK  132  A    between atoms: _363  and  _364
REMARK  133  A    between atoms: _363  and  _366
REMARK  134  A    between atoms: _369  and  _371
REMARK  135  A    between atoms: _371  and  _372
REMARK  136  A    between atoms: _371  and  _374
REMARK  137  A    between atoms: _374  and  _375
REMARK  138  A    between atoms: _385  and  _387
REMARK  139  A    between atoms: _387  and  _388
REMARK  140  A    between atoms: _387  and  _390
REMARK  141  A    between atoms: _390  and  _391
REMARK  142  A    between atoms: _396  and  _398
REMARK  143  A    between atoms: _398  and  _399
REMARK  144  A    between atoms: _398  and  _401
REMARK  145  A    between atoms: _401  and  _402
REMARK  146  A    between atoms: _402  and  _403
REMARK  147  A    between atoms: _403  and  _404
REMARK                            x       y       z     vdW  Elec       q    Type
REMARK                         _______ _______ _______ _____ _____    ______ ____
ROOT
ATOM      1  CA  THR A   5       0.276   0.054  16.095  0.00  0.00    +0.176 C 
ENDROOT
BRANCH   1   2
ATOM      2  C   THR A   5       1.088   1.292  16.397  0.00  0.00    +0.246 C 
ATOM      3  O   THR A   5       0.585   2.226  17.021  0.00  0.00    -0.273 OA
ATOM      4  N   PRO A   6       2.351   1.322  15.941  0.00  0.00    -0.272 N 
ATOM      5  CA  PRO A   6       3.105   2.579  15.994  0.00  0.00    +0.152 C 
ATOM      6  CB  PRO A   6       4.323   2.279  15.120  0.00  0.00    +0.031 C 
ATOM      7  CG  PRO A   6       4.540   0.797  15.334  0.00  0.00    +0.024 C 
ATOM      8  CD  PRO A   6       3.147   0.215  15.382  0.00  0.00    +0.094 C 
BRANCH   5   9
ATOM      9  C   PRO A   6       2.237   3.704  15.423  0.00  0.00    +0.244 C 
ATOM     10  N   PRO A   7       2.264   4.890  16.042  0.00  0.00    -0.272 N 
ATOM     11  CA  PRO A   7       3.170   5.310  17.117  0.00  0.00    +0.152 C 
ATOM     12  CB  PRO A   7       3.123   6.833  17.014  0.00  0.00    +0.031 C 
ATOM     13  CG  PRO A   7       1.741   7.124  16.511  0.00  0.00    +0.024 C 
ATOM     14  CD  PRO A   7       1.445   6.012  15.540  0.00  0.00    +0.094 C 
ATOM     15  O   PRO A   6       1.527   3.488  14.431  0.00  0.00    -0.273 OA
BRANCH  11  16
ATOM     16  C   PRO A   7       2.814   4.860  18.545  0.00  0.00    +0.241 C 
ATOM     17  O   PRO A   7       3.488   5.312  19.471  0.00  0.00    -0.273 OA
ATOM     18  N   LEU A   8       1.807   4.006  18.725  0.00  0.00    -0.297 N 
ATOM     19  H   LEU A   8       1.192   3.773  17.920  0.00  0.00    +0.150 HD
BRANCH  18  20
ATOM     20  CA  LEU A   8       1.542   3.385  20.030  0.00  0.00    +0.149 C 
BRANCH  20  21
ATOM     21  C   LEU A   8       1.175   4.403  21.119  0.00  0.00    +0.241 C 
ATOM     22  O   LEU A   8       1.349   4.157  22.316  0.00  0.00    -0.273 OA
ATOM     23  N   LEU A   9       0.620   5.532  20.689  0.00  0.00    -0.298 N 
ATOM     24  H   LEU A   9       0.408   5.639  19.677  0.00  0.00    +0.150 HD
BRANCH  23  25
ATOM     25  CA  LEU A   9       0.302   6.623  21.600  0.00  0.00    +0.137 C 
BRANCH  25  26
ATOM     26  C   LEU A   9      -0.745   6.201  22.631  0.00  0.00    +0.227 C 
ATOM     27  O   LEU A   9      -1.710   5.500  22.317  0.00  0.00    -0.286 OA
ENDBRANCH  25  26
BRANCH  25  28
ATOM     28  CB  LEU A   9      -0.166   7.851  20.814  0.00  0.00    +0.028 C 
BRANCH  28  29
ATOM     29  CG  LEU A   9       0.904   8.439  19.886  0.00  0.00    +0.002 C 
ATOM     30  CD2 LEU A   9       2.057   9.043  20.684  0.00  0.00    +0.000 C 
ATOM     31  CD1 LEU A   9       0.299   9.482  18.957  0.00  0.00    +0.000 C 
ENDBRANCH  28  29
ENDBRANCH  25  28
ENDBRANCH  23  25
ENDBRANCH  20  21
BRANCH  20  32
ATOM     32  CB  LEU A   8       2.721   2.508  20.463  0.00  0.00    +0.029 C 
BRANCH  32  33
ATOM     33  CG  LEU A   8       3.041   1.329  19.532  0.00  0.00    +0.002 C 
ATOM     34  CD2 LEU A   8       4.360   0.664  19.935  0.00  0.00    +0.000 C 
ATOM     35  CD1 LEU A   8       1.912   0.297  19.505  0.00  0.00    +0.000 C 
ENDBRANCH  32  33
ENDBRANCH  20  32
ENDBRANCH  18  20
ENDBRANCH  11  16
ENDBRANCH   5   9
ENDBRANCH   1   2
BRANCH   1  38
ATOM     36  C   THR A   4      -1.004  -1.087  17.819  0.00  0.00    +0.243 C 
ATOM     37  O   THR A   4      -0.393  -2.149  17.648  0.00  0.00    -0.273 OA
ATOM     38  N   THR A   5      -0.822  -0.010  17.055  0.00  0.00    -0.295 N 
ATOM     39  H   THR A   5      -1.472   0.797  17.144  0.00  0.00    +0.150 HD
BRANCH  36  40
ATOM     40  CA  THR A   4      -2.040  -0.988  18.935  0.00  0.00    +0.176 C 
BRANCH  40  43
ATOM     41  C   LEU A   3      -2.244   1.278  19.757  0.00  0.00    +0.241 C 
ATOM     42  O   LEU A   3      -1.248   1.138  20.465  0.00  0.00    -0.273 OA
ATOM     43  N   THR A   4      -2.709   0.308  18.977  0.00  0.00    -0.295 N 
ATOM     44  H   THR A   4      -3.554   0.473  18.394  0.00  0.00    +0.150 HD
BRANCH  41  45
ATOM     45  CA  LEU A   3      -2.979   2.603  19.740  0.00  0.00    +0.149 C 
BRANCH  45  48
ATOM     46  C   SER A   2      -3.495   2.461  22.084  0.00  0.00    +0.243 C 
ATOM     47  O   SER A   2      -4.284   1.512  21.929  0.00  0.00    -0.273 OA
ATOM     48  N   LEU A   3      -2.943   3.140  21.086  0.00  0.00    -0.297 N 
ATOM     49  H   LEU A   3      -2.485   4.056  21.269  0.00  0.00    +0.150 HD
BRANCH  46  50
ATOM     50  CA  SER A   2      -3.050   2.884  23.464  0.00  0.00    +0.178 C 
BRANCH  50  53
ATOM     51  C   GLY A   1      -4.262   2.896  25.572  0.00  0.00    +0.240 C 
ATOM     52  O   GLY A   1      -4.180   4.127  25.704  0.00  0.00    -0.274 OA
ATOM     53  N   SER A   2      -3.863   2.245  24.487  0.00  0.00    -0.295 N 
ATOM     54  H   SER A   2      -4.139   1.250  24.364  0.00  0.00    +0.150 HD
BRANCH  51  55
ATOM     55  CA  GLY A   1      -4.855   2.024  26.652  0.00  0.00    +0.169 C 
BRANCH  55  56
ATOM     56  N   GLY A   1      -5.941   2.654  27.375  0.00  0.00    -0.236 NA
ATOM     57  H   GLY A   1      -6.550   3.346  26.894  0.00  0.00    +0.142 HD
ENDBRANCH  55  56
ENDBRANCH  51  55
ENDBRANCH  50  53
BRANCH  50  58
ATOM     58  CB  SER A   2      -1.573   2.494  23.640  0.00  0.00    +0.166 C 
BRANCH  58  59
ATOM     59  OG  SER A   2      -1.323   1.161  23.201  0.00  0.00    -0.380 OA
ATOM     60  H   SER A   2      -1.554   1.082  22.242  0.00  0.00    +0.211 HD
ENDBRANCH  58  59
ENDBRANCH  50  58
ENDBRANCH  46  50
ENDBRANCH  45  48
BRANCH  45  61
ATOM     61  CB  LEU A   3      -2.243   3.526  18.777  0.00  0.00    +0.029 C 
BRANCH  61  62
ATOM     62  CG  LEU A   3      -2.706   4.980  18.720  0.00  0.00    +0.002 C 
ATOM     63  CD2 LEU A   3      -4.196   5.085  18.411  0.00  0.00    +0.000 C 
ATOM     64  CD1 LEU A   3      -1.880   5.777  17.707  0.00  0.00    +0.000 C 
ENDBRANCH  61  62
ENDBRANCH  45  61
ENDBRANCH  41  45
ENDBRANCH  40  43
BRANCH  40  65
ATOM     65  CB  THR A   4      -3.035  -2.146  18.761  0.00  0.00    +0.137 C 
ATOM     66  CG2 THR A   4      -4.102  -2.116  19.849  0.00  0.00    +0.034 C 
BRANCH  65  67
ATOM     67  OG1 THR A   4      -3.652  -2.029  17.474  0.00  0.00    -0.382 OA
ATOM     68  HG1 THR A   4      -4.296  -2.770  17.350  0.00  0.00    +0.210 HD
ENDBRANCH  65  67
ENDBRANCH  40  65
ENDBRANCH  36  40
ENDBRANCH   1  38
BRANCH   1  69
ATOM     69  CB  THR A   5      -0.217   0.165  14.638  0.00  0.00    +0.137 C 
ATOM     70  CG2 THR A   5      -1.352  -0.806  14.366  0.00  0.00    +0.034 C 
BRANCH  69  71
ATOM     71  OG1 THR A   5      -0.649   1.509  14.379  0.00  0.00    -0.382 OA
ATOM     72  HG1 THR A   5      -0.965   1.578  13.443  0.00  0.00    +0.210 HD
ENDBRANCH  69  71
ENDBRANCH   1  69
TORSDOF 28
REMARK  Name = ../refined-set-2016/4ruy/4ruy_pocket.pdb
REMARK  147 active torsions:
REMARK  status: ('A' for Active; 'I' for Inactive)
REMARK    1  A    between atoms: _1  and  _3
REMARK    2  A    between atoms: _3  and  _4
REMARK    3  A    between atoms: _3  and  _6
REMARK    4  A    between atoms: _6  and  _7
REMARK    5  A    between atoms: _17  and  _19
REMARK    6  A    between atoms: _19  and  _20
REMARK    7  A    between atoms: _19  and  _22
REMARK    8  A    between atoms: _22  and  _23
REMARK    9  A    between atoms: _28  and  _29
REMARK   10  A    between atoms: _31  and  _33
REMARK   11  A    between atoms: _33  and  _34
REMARK   12  A    between atoms: _33  and  _36
REMARK   13  A    between atoms: _36  and  _37
REMARK   14  A    between atoms: _40  and  _41
REMARK   15  A    between atoms: _46  and  _48
REMARK   16  A    between atoms: _48  and  _49
REMARK   17  A    between atoms: _48  and  _51
REMARK   18  A    between atoms: _51  and  _52
REMARK   19  A    between atoms: _57  and  _59
REMARK   20  A    between atoms: _59  and  _60
REMARK   21  A    between atoms: _63  and  _65
REMARK   22  A    between atoms: _65  and  _66
REMARK   23  A    between atoms: _65  and  _68
REMARK   24  A    between atoms: _68  and  _69
REMARK   25  A    between atoms: _74  and  _76
REMARK   26  A    between atoms: _76  and  _77
REMARK   27  A    between atoms: _76  and  _79
REMARK   28  A    between atoms: _79  and  _80
REMARK   29  A    between atoms: _83  and  _85
REMARK   30  A    between atoms: _85  and  _86
REMARK   31  A    between atoms: _85  and  _88
REMARK   32  A    between atoms: _88  and  _89
REMARK   33  A    between atoms: _89  and  _90
REMARK   34  A    between atoms: _95  and  _97
REMARK   35  A    between atoms: _97  and  _98
REMARK   36  A    between atoms: _97  and  _100
REMARK   37  A    between atoms: _100  and  _101
REMARK   38  A    between atoms: _107  and  _109
REMARK   39  A    between atoms: _120  and  _123
REMARK   40  A    between atoms: _123  and  _124
REMARK   41  A    between atoms: _132  and  _133
REMARK   42  A    between atoms: _141  and  _143
REMARK   43  A    between atoms: _143  and  _144
REMARK   44  A    between atoms: _143  and  _146
REMARK   45  A    between atoms: _146  and  _147
REMARK   46  A    between atoms: _147  and  _148
REMARK   47  A    between atoms: _151  and  _153
REMARK   48  A    between atoms: _153  and  _154
REMARK   49  A    between atoms: _153  and  _156
REMARK   50  A    between atoms: _156  and  _157
REMARK   51  A    between atoms: _162  and  _164
REMARK   52  A    between atoms: _164  and  _165
REMARK   53  A    between atoms: _164  and  _167
REMARK   54  A    between atoms: _167  and  _168
REMARK   55  A    between atoms: _168  and  _169
REMARK   56  A    between atoms: _172  and  _174
REMARK   57  A    between atoms: _174  and  _175
REMARK   58  A    between atoms: _174  and  _177
REMARK   59  A    between atoms: _177  and  _178
REMARK   60  A    between atoms: _181  and  _183
REMARK   61  A    between atoms: _183  and  _184
REMARK   62  A    between atoms: _183  and  _186
REMARK   63  A    between atoms: _186  and  _187
REMARK   64  A    between atoms: _188  and  ZN_413
REMARK   65  A    between atoms: _192  and  _194
REMARK   66  A    between atoms: _194  and  _195
REMARK   67  A    between atoms: _194  and  _197
REMARK   68  A    between atoms: _197  and  _198
REMARK   69  A    between atoms: _201  and  _203
REMARK   70  A    between atoms: _203  and  _204
REMARK   71  A    between atoms: _203  and  _206
REMARK   72  A    between atoms: _209  and  _211
REMARK   73  A    between atoms: _211  and  _212
REMARK   74  A    between atoms: _211  and  _214
REMARK   75  A    between atoms: _214  and  _215
REMARK   76  A    between atoms: _220  and  _222
REMARK   77  A    between atoms: _222  and  _223
REMARK   78  A    between atoms: _222  and  _225
REMARK   79  A    between atoms: _225  and  _226
REMARK   80  A    between atoms: _232  and  _234
REMARK   81  A    between atoms: _234  and  _235
REMARK   82  A    between atoms: _237  and  _239
REMARK   83  A    between atoms: _239  and  _240
REMARK   84  A    between atoms: _239  and  _242
REMARK   85  A    between atoms: _245  and  _247
REMARK   86  A    between atoms: _247  and  _248
REMARK   87  A    between atoms: _247  and  _250
REMARK   88  A    between atoms: _250  and  _251
REMARK   89  A    between atoms: _254  and  _256
REMARK   90  A    between atoms: _256  and  _257
REMARK   91  A    between atoms: _260  and  _262
REMARK   92  A    between atoms: _262  and  _263
REMARK   93  A    between atoms: _262  and  _265
REMARK   94  A    between atoms: _268  and  _270
REMARK   95  A    between atoms: _270  and  _271
REMARK   96  A    between atoms: _270  and  _273
REMARK   97  A    between atoms: _273  and  _274
REMARK   98  A    between atoms: _277  and  _279
REMARK   99  A    between atoms: _279  and  _280
REMARK  100  A    between atoms: _282  and  _284
REMARK  101  A    between atoms: _284  and  _285
REMARK  102  A    between atoms: _287  and  _289
REMARK  103  A    between atoms: _289  and  _290
REMARK  104  A    between atoms: _289  and  _292
REMARK  105  A    between atoms: _292  and  _293
REMARK  106  A    between atoms: _295  and  _297
REMARK  107  A    between atoms: _297  and  _298
REMARK  108  A    between atoms: _297  and  _300
REMARK  109  A    between atoms: _300  and  _301
REMARK  110  A    between atoms: _304  and  _306
REMARK  111  A    between atoms: _306  and  _307
REMARK  112  A    between atoms: _306  and  _309
REMARK  113  A    between atoms: _309  and  _310
REMARK  114  A    between atoms: _313  and  _315
REMARK  115  A    between atoms: _315  and  _316
REMARK  116  A    between atoms: _315  and  _318
REMARK  117  A    between atoms: _318  and  _319
REMARK  118  A    between atoms: _323  and  _324
REMARK  119  A    between atoms: _330  and  _331
REMARK  120  A    between atoms: _336  and  _338
REMARK  121  A    between atoms: _338  and  _339
REMARK  122  A    between atoms: _338  and  _341
REMARK  123  A    between atoms: _341  and  _342
REMARK  124  A    between atoms: _345  and  _347
REMARK  125  A    between atoms: _347  and  _348
REMARK  126  A    between atoms: _347  and  _350
REMARK  127  A    between atoms: _350  and  _351
REMARK  128  A    between atoms: _354  and  _356
REMARK  129  A    between atoms: _356  and  _357
REMARK  130  A    between atoms: _356  and  _359
REMARK  131  A    between atoms: _361  and  _363
REMARK  132  A    between atoms: _363  and  _364
REMARK  133  A    between atoms: _363  and  _366
REMARK  134  A    between atoms: _369  and  _371
REMARK  135  A    between atoms: _371  and  _372
REMARK  136  A    between atoms: _371  and  _374
REMARK  137  A    between atoms: _374  and  _375
REMARK  138  A    between atoms: _385  and  _387
REMARK  139  A    between atoms: _387  and  _388
REMARK  140  A    between atoms: _387  and  _390
REMARK  141  A    between atoms: _390  and  _391
REMARK  142  A    between atoms: _396  and  _398
REMARK  143  A    between atoms: _398  and  _399
REMARK  144  A    between atoms: _398  and  _401
REMARK  145  A    between atoms: _401  and  _402
REMARK  146  A    between atoms: _402  and  _403
REMARK  147  A    between atoms: _403  and  _404
REMARK                            x       y       z     vdW  Elec       q    Type
REMARK                         _______ _______ _______ _____ _____    ______ ____
ROOT
ATOM      1  C   CYS A   1      -5.899   7.549  23.818  0.00  0.00    +0.239 C 
ATOM      2  N   VAL A   2      -6.033   6.253  24.104  0.00  0.00    -0.298 N 
ATOM      3  H   VAL A   2      -5.245   5.744  24.553  0.00  0.00    +0.150 HD
ATOM      4  O   CYS A   1      -6.840   8.247  23.469  0.00  0.00    -0.274 OA
ENDROOT
BRANCH   1   5
ATOM      5  CA  CYS A   1      -4.513   8.167  23.934  0.00  0.00    +0.156 C 
BRANCH   5   6
ATOM      6  N   CYS A   1      -3.477   7.172  24.125  0.00  0.00    -0.237 NA
ATOM      7  H   CYS A   1      -3.431   6.370  23.465  0.00  0.00    +0.142 HD
ENDBRANCH   5   6
BRANCH   5   8
ATOM      8  CB  CYS A   1      -4.226   8.963  22.653  0.00  0.00    +0.095 C 
ATOM      9  SG  CYS A   1      -4.186   7.968  21.134  0.00  0.00    -0.080 S 
ENDBRANCH   5   8
ENDBRANCH   1   5
BRANCH   2  10
ATOM     10  CA  VAL A   2      -7.275   5.535  23.795  0.00  0.00    +0.137 C 
BRANCH  10  11
ATOM     11  CB  VAL A   2      -7.002   4.275  22.932  0.00  0.00    +0.026 C 
ATOM     12  CG2 VAL A   2      -8.305   3.570  22.568  0.00  0.00    +0.002 C 
ATOM     13  CG1 VAL A   2      -6.192   4.621  21.670  0.00  0.00    +0.002 C 
ENDBRANCH  10  11
BRANCH  10  14
ATOM     14  C   VAL A   2      -8.049   5.071  25.021  0.00  0.00    +0.227 C 
ATOM     15  O   VAL A   2      -7.491   4.429  25.908  0.00  0.00    -0.286 OA
ENDBRANCH  10  14
ENDBRANCH   2  10
TORSDOF 6
REMARK  Name = ../refined-set-2016/4ruy/4ruy_pocket.pdb
REMARK  147 active torsions:
REMARK  status: ('A' for Active; 'I' for Inactive)
REMARK    1  A    between atoms: _1  and  _3
REMARK    2  A    between atoms: _3  and  _4
REMARK    3  A    between atoms: _3  and  _6
REMARK    4  A    between atoms: _6  and  _7
REMARK    5  A    between atoms: _17  and  _19
REMARK    6  A    between atoms: _19  and  _20
REMARK    7  A    between atoms: _19  and  _22
REMARK    8  A    between atoms: _22  and  _23
REMARK    9  A    between atoms: _28  and  _29
REMARK   10  A    between atoms: _31  and  _33
REMARK   11  A    between atoms: _33  and  _34
REMARK   12  A    between atoms: _33  and  _36
REMARK   13  A    between atoms: _36  and  _37
REMARK   14  A    between atoms: _40  and  _41
REMARK   15  A    between atoms: _46  and  _48
REMARK   16  A    between atoms: _48  and  _49
REMARK   17  A    between atoms: _48  and  _51
REMARK   18  A    between atoms: _51  and  _52
REMARK   19  A    between atoms: _57  and  _59
REMARK   20  A    between atoms: _59  and  _60
REMARK   21  A    between atoms: _63  and  _65
REMARK   22  A    between atoms: _65  and  _66
REMARK   23  A    between atoms: _65  and  _68
REMARK   24  A    between atoms: _68  and  _69
REMARK   25  A    between atoms: _74  and  _76
REMARK   26  A    between atoms: _76  and  _77
REMARK   27  A    between atoms: _76  and  _79
REMARK   28  A    between atoms: _79  and  _80
REMARK   29  A    between atoms: _83  and  _85
REMARK   30  A    between atoms: _85  and  _86
REMARK   31  A    between atoms: _85  and  _88
REMARK   32  A    between atoms: _88  and  _89
REMARK   33  A    between atoms: _89  and  _90
REMARK   34  A    between atoms: _95  and  _97
REMARK   35  A    between atoms: _97  and  _98
REMARK   36  A    between atoms: _97  and  _100
REMARK   37  A    between atoms: _100  and  _101
REMARK   38  A    between atoms: _107  and  _109
REMARK   39  A    between atoms: _120  and  _123
REMARK   40  A    between atoms: _123  and  _124
REMARK   41  A    between atoms: _132  and  _133
REMARK   42  A    between atoms: _141  and  _143
REMARK   43  A    between atoms: _143  and  _144
REMARK   44  A    between atoms: _143  and  _146
REMARK   45  A    between atoms: _146  and  _147
REMARK   46  A    between atoms: _147  and  _148
REMARK   47  A    between atoms: _151  and  _153
REMARK   48  A    between atoms: _153  and  _154
REMARK   49  A    between atoms: _153  and  _156
REMARK   50  A    between atoms: _156  and  _157
REMARK   51  A    between atoms: _162  and  _164
REMARK   52  A    between atoms: _164  and  _165
REMARK   53  A    between atoms: _164  and  _167
REMARK   54  A    between atoms: _167  and  _168
REMARK   55  A    between atoms: _168  and  _169
REMARK   56  A    between atoms: _172  and  _174
REMARK   57  A    between atoms: _174  and  _175
REMARK   58  A    between atoms: _174  and  _177
REMARK   59  A    between atoms: _177  and  _178
REMARK   60  A    between atoms: _181  and  _183
REMARK   61  A    between atoms: _183  and  _184
REMARK   62  A    between atoms: _183  and  _186
REMARK   63  A    between atoms: _186  and  _187
REMARK   64  A    between atoms: _188  and  ZN_413
REMARK   65  A    between atoms: _192  and  _194
REMARK   66  A    between atoms: _194  and  _195
REMARK   67  A    between atoms: _194  and  _197
REMARK   68  A    between atoms: _197  and  _198
REMARK   69  A    between atoms: _201  and  _203
REMARK   70  A    between atoms: _203  and  _204
REMARK   71  A    between atoms: _203  and  _206
REMARK   72  A    between atoms: _209  and  _211
REMARK   73  A    between atoms: _211  and  _212
REMARK   74  A    between atoms: _211  and  _214
REMARK   75  A    between atoms: _214  and  _215
REMARK   76  A    between atoms: _220  and  _222
REMARK   77  A    between atoms: _222  and  _223
REMARK   78  A    between atoms: _222  and  _225
REMARK   79  A    between atoms: _225  and  _226
REMARK   80  A    between atoms: _232  and  _234
REMARK   81  A    between atoms: _234  and  _235
REMARK   82  A    between atoms: _237  and  _239
REMARK   83  A    between atoms: _239  and  _240
REMARK   84  A    between atoms: _239  and  _242
REMARK   85  A    between atoms: _245  and  _247
REMARK   86  A    between atoms: _247  and  _248
REMARK   87  A    between atoms: _247  and  _250
REMARK   88  A    between atoms: _250  and  _251
REMARK   89  A    between atoms: _254  and  _256
REMARK   90  A    between atoms: _256  and  _257
REMARK   91  A    between atoms: _260  and  _262
REMARK   92  A    between atoms: _262  and  _263
REMARK   93  A    between atoms: _262  and  _265
REMARK   94  A    between atoms: _268  and  _270
REMARK   95  A    between atoms: _270  and  _271
REMARK   96  A    between atoms: _270  and  _273
REMARK   97  A    between atoms: _273  and  _274
REMARK   98  A    between atoms: _277  and  _279
REMARK   99  A    between atoms: _279  and  _280
REMARK  100  A    between atoms: _282  and  _284
REMARK  101  A    between atoms: _284  and  _285
REMARK  102  A    between atoms: _287  and  _289
REMARK  103  A    between atoms: _289  and  _290
REMARK  104  A    between atoms: _289  and  _292
REMARK  105  A    between atoms: _292  and  _293
REMARK  106  A    between atoms: _295  and  _297
REMARK  107  A    between atoms: _297  and  _298
REMARK  108  A    between atoms: _297  and  _300
REMARK  109  A    between atoms: _300  and  _301
REMARK  110  A    between atoms: _304  and  _306
REMARK  111  A    between atoms: _306  and  _307
REMARK  112  A    between atoms: _306  and  _309
REMARK  113  A    between atoms: _309  and  _310
REMARK  114  A    between atoms: _313  and  _315
REMARK  115  A    between atoms: _315  and  _316
REMARK  116  A    between atoms: _315  and  _318
REMARK  117  A    between atoms: _318  and  _319
REMARK  118  A    between atoms: _323  and  _324
REMARK  119  A    between atoms: _330  and  _331
REMARK  120  A    between atoms: _336  and  _338
REMARK  121  A    between atoms: _338  and  _339
REMARK  122  A    between atoms: _338  and  _341
REMARK  123  A    between atoms: _341  and  _342
REMARK  124  A    between atoms: _345  and  _347
REMARK  125  A    between atoms: _347  and  _348
REMARK  126  A    between atoms: _347  and  _350
REMARK  127  A    between atoms: _350  and  _351
REMARK  128  A    between atoms: _354  and  _356
REMARK  129  A    between atoms: _356  and  _357
REMARK  130  A    between atoms: _356  and  _359
REMARK  131  A    between atoms: _361  and  _363
REMARK  132  A    between atoms: _363  and  _364
REMARK  133  A    between atoms: _363  and  _366
REMARK  134  A    between atoms: _369  and  _371
REMARK  135  A    between atoms: _371  and  _372
REMARK  136  A    between atoms: _371  and  _374
REMARK  137  A    between atoms: _374  and  _375
REMARK  138  A    between atoms: _385  and  _387
REMARK  139  A    between atoms: _387  and  _388
REMARK  140  A    between atoms: _387  and  _390
REMARK  141  A    between atoms: _390  and  _391
REMARK  142  A    between atoms: _396  and  _398
REMARK  143  A    between atoms: _398  and  _399
REMARK  144  A    between atoms: _398  and  _401
REMARK  145  A    between atoms: _401  and  _402
REMARK  146  A    between atoms: _402  and  _403
REMARK  147  A    between atoms: _403  and  _404
REMARK                            x       y       z     vdW  Elec       q    Type
REMARK                         _______ _______ _______ _____ _____    ______ ____
ROOT
ATOM      1  CG  TRP A   1      -8.769   0.082  23.998  0.00  0.00    -0.002 A 
ATOM      2  CD1 TRP A   1      -7.551   0.663  24.181  0.00  0.00    +0.068 A 
ATOM      3  NE1 TRP A   1      -6.833   0.641  23.006  0.00  0.00    -0.352 N 
ATOM      4  HE1 TRP A   1      -5.872   1.016  22.876  0.00  0.00    +0.166 HD
ATOM      5  CE2 TRP A   1      -7.594   0.043  22.036  0.00  0.00    +0.056 A 
ATOM      6  CZ2 TRP A   1      -7.307  -0.215  20.705  0.00  0.00    +0.017 A 
ATOM      7  CH2 TRP A   1      -8.278  -0.843  19.965  0.00  0.00    +0.001 A 
ATOM      8  CZ3 TRP A   1      -9.511  -1.214  20.526  0.00  0.00    +0.000 A 
ATOM      9  CE3 TRP A   1      -9.794  -0.948  21.844  0.00  0.00    +0.001 A 
ATOM     10  CD2 TRP A   1      -8.824  -0.316  22.628  0.00  0.00    +0.013 A 
ENDROOT
BRANCH   1  11
ATOM     11  CB  TRP A   1      -9.871  -0.040  24.990  0.00  0.00    +0.053 C 
BRANCH  11  12
ATOM     12  CA  TRP A   1     -10.883   1.096  24.807  0.00  0.00    +0.137 C 
BRANCH  12  13
ATOM     13  N   TRP A   1     -10.439   2.307  25.480  0.00  0.00    -0.239 NA
ATOM     14  H   TRP A   1      -9.817   2.223  26.309  0.00  0.00    +0.142 HD
ENDBRANCH  12  13
BRANCH  12  15
ATOM     15  C   TRP A   1     -12.238   0.682  25.321  0.00  0.00    +0.224 C 
ATOM     16  O   TRP A   1     -12.469   0.649  26.534  0.00  0.00    -0.287 OA
ENDBRANCH  12  15
ENDBRANCH  11  12
ENDBRANCH   1  11
TORSDOF 4
REMARK  Name = ../refined-set-2016/4ruy/4ruy_pocket.pdb
REMARK  147 active torsions:
REMARK  status: ('A' for Active; 'I' for Inactive)
REMARK    1  A    between atoms: _1  and  _3
REMARK    2  A    between atoms: _3  and  _4
REMARK    3  A    between atoms: _3  and  _6
REMARK    4  A    between atoms: _6  and  _7
REMARK    5  A    between atoms: _17  and  _19
REMARK    6  A    between atoms: _19  and  _20
REMARK    7  A    between atoms: _19  and  _22
REMARK    8  A    between atoms: _22  and  _23
REMARK    9  A    between atoms: _28  and  _29
REMARK   10  A    between atoms: _31  and  _33
REMARK   11  A    between atoms: _33  and  _34
REMARK   12  A    between atoms: _33  and  _36
REMARK   13  A    between atoms: _36  and  _37
REMARK   14  A    between atoms: _40  and  _41
REMARK   15  A    between atoms: _46  and  _48
REMARK   16  A    between atoms: _48  and  _49
REMARK   17  A    between atoms: _48  and  _51
REMARK   18  A    between atoms: _51  and  _52
REMARK   19  A    between atoms: _57  and  _59
REMARK   20  A    between atoms: _59  and  _60
REMARK   21  A    between atoms: _63  and  _65
REMARK   22  A    between atoms: _65  and  _66
REMARK   23  A    between atoms: _65  and  _68
REMARK   24  A    between atoms: _68  and  _69
REMARK   25  A    between atoms: _74  and  _76
REMARK   26  A    between atoms: _76  and  _77
REMARK   27  A    between atoms: _76  and  _79
REMARK   28  A    between atoms: _79  and  _80
REMARK   29  A    between atoms: _83  and  _85
REMARK   30  A    between atoms: _85  and  _86
REMARK   31  A    between atoms: _85  and  _88
REMARK   32  A    between atoms: _88  and  _89
REMARK   33  A    between atoms: _89  and  _90
REMARK   34  A    between atoms: _95  and  _97
REMARK   35  A    between atoms: _97  and  _98
REMARK   36  A    between atoms: _97  and  _100
REMARK   37  A    between atoms: _100  and  _101
REMARK   38  A    between atoms: _107  and  _109
REMARK   39  A    between atoms: _120  and  _123
REMARK   40  A    between atoms: _123  and  _124
REMARK   41  A    between atoms: _132  and  _133
REMARK   42  A    between atoms: _141  and  _143
REMARK   43  A    between atoms: _143  and  _144
REMARK   44  A    between atoms: _143  and  _146
REMARK   45  A    between atoms: _146  and  _147
REMARK   46  A    between atoms: _147  and  _148
REMARK   47  A    between atoms: _151  and  _153
REMARK   48  A    between atoms: _153  and  _154
REMARK   49  A    between atoms: _153  and  _156
REMARK   50  A    between atoms: _156  and  _157
REMARK   51  A    between atoms: _162  and  _164
REMARK   52  A    between atoms: _164  and  _165
REMARK   53  A    between atoms: _164  and  _167
REMARK   54  A    between atoms: _167  and  _168
REMARK   55  A    between atoms: _168  and  _169
REMARK   56  A    between atoms: _172  and  _174
REMARK   57  A    between atoms: _174  and  _175
REMARK   58  A    between atoms: _174  and  _177
REMARK   59  A    between atoms: _177  and  _178
REMARK   60  A    between atoms: _181  and  _183
REMARK   61  A    between atoms: _183  and  _184
REMARK   62  A    between atoms: _183  and  _186
REMARK   63  A    between atoms: _186  and  _187
REMARK   64  A    between atoms: _188  and  ZN_413
REMARK   65  A    between atoms: _192  and  _194
REMARK   66  A    between atoms: _194  and  _195
REMARK   67  A    between atoms: _194  and  _197
REMARK   68  A    between atoms: _197  and  _198
REMARK   69  A    between atoms: _201  and  _203
REMARK   70  A    between atoms: _203  and  _204
REMARK   71  A    between atoms: _203  and  _206
REMARK   72  A    between atoms: _209  and  _211
REMARK   73  A    between atoms: _211  and  _212
REMARK   74  A    between atoms: _211  and  _214
REMARK   75  A    between atoms: _214  and  _215
REMARK   76  A    between atoms: _220  and  _222
REMARK   77  A    between atoms: _222  and  _223
REMARK   78  A    between atoms: _222  and  _225
REMARK   79  A    between atoms: _225  and  _226
REMARK   80  A    between atoms: _232  and  _234
REMARK   81  A    between atoms: _234  and  _235
REMARK   82  A    between atoms: _237  and  _239
REMARK   83  A    between atoms: _239  and  _240
REMARK   84  A    between atoms: _239  and  _242
REMARK   85  A    between atoms: _245  and  _247
REMARK   86  A    between atoms: _247  and  _248
REMARK   87  A    between atoms: _247  and  _250
REMARK   88  A    between atoms: _250  and  _251
REMARK   89  A    between atoms: _254  and  _256
REMARK   90  A    between atoms: _256  and  _257
REMARK   91  A    between atoms: _260  and  _262
REMARK   92  A    between atoms: _262  and  _263
REMARK   93  A    between atoms: _262  and  _265
REMARK   94  A    between atoms: _268  and  _270
REMARK   95  A    between atoms: _270  and  _271
REMARK   96  A    between atoms: _270  and  _273
REMARK   97  A    between atoms: _273  and  _274
REMARK   98  A    between atoms: _277  and  _279
REMARK   99  A    between atoms: _279  and  _280
REMARK  100  A    between atoms: _282  and  _284
REMARK  101  A    between atoms: _284  and  _285
REMARK  102  A    between atoms: _287  and  _289
REMARK  103  A    between atoms: _289  and  _290
REMARK  104  A    between atoms: _289  and  _292
REMARK  105  A    between atoms: _292  and  _293
REMARK  106  A    between atoms: _295  and  _297
REMARK  107  A    between atoms: _297  and  _298
REMARK  108  A    between atoms: _297  and  _300
REMARK  109  A    between atoms: _300  and  _301
REMARK  110  A    between atoms: _304  and  _306
REMARK  111  A    between atoms: _306  and  _307
REMARK  112  A    between atoms: _306  and  _309
REMARK  113  A    between atoms: _309  and  _310
REMARK  114  A    between atoms: _313  and  _315
REMARK  115  A    between atoms: _315  and  _316
REMARK  116  A    between atoms: _315  and  _318
REMARK  117  A    between atoms: _318  and  _319
REMARK  118  A    between atoms: _323  and  _324
REMARK  119  A    between atoms: _330  and  _331
REMARK  120  A    between atoms: _336  and  _338
REMARK  121  A    between atoms: _338  and  _339
REMARK  122  A    between atoms: _338  and  _341
REMARK  123  A    between atoms: _341  and  _342
REMARK  124  A    between atoms: _345  and  _347
REMARK  125  A    between atoms: _347  and  _348
REMARK  126  A    between atoms: _347  and  _350
REMARK  127  A    between atoms: _350  and  _351
REMARK  128  A    between atoms: _354  and  _356
REMARK  129  A    between atoms: _356  and  _357
REMARK  130  A    between atoms: _356  and  _359
REMARK  131  A    between atoms: _361  and  _363
REMARK  132  A    between atoms: _363  and  _364
REMARK  133  A    between atoms: _363  and  _366
REMARK  134  A    between atoms: _369  and  _371
REMARK  135  A    between atoms: _371  and  _372
REMARK  136  A    between atoms: _371  and  _374
REMARK  137  A    between atoms: _374  and  _375
REMARK  138  A    between atoms: _385  and  _387
REMARK  139  A    between atoms: _387  and  _388
REMARK  140  A    between atoms: _387  and  _390
REMARK  141  A    between atoms: _390  and  _391
REMARK  142  A    between atoms: _396  and  _398
REMARK  143  A    between atoms: _398  and  _399
REMARK  144  A    between atoms: _398  and  _401
REMARK  145  A    between atoms: _401  and  _402
REMARK  146  A    between atoms: _402  and  _403
REMARK  147  A    between atoms: _403  and  _404
REMARK                            x       y       z     vdW  Elec       q    Type
REMARK                         _______ _______ _______ _____ _____    ______ ____
ROOT
ATOM      1  CB  ASN A   1      -2.043  -7.175  10.305  0.00  0.00    +0.110 C 
ENDROOT
BRANCH   1   2
ATOM      2  CG  ASN A   1      -3.543  -7.305  10.154  0.00  0.00    +0.221 C 
ATOM      3  OD1 ASN A   1      -4.153  -8.240  10.668  0.00  0.00    -0.275 OA
ATOM      4  ND2 ASN A   1      -4.149  -6.358   9.442  0.00  0.00    -0.329 N 
ATOM      5 HD21 ASN A   1      -5.179  -6.391   9.303  0.00  0.00    +0.145 HD
ATOM      6 HD22 ASN A   1      -3.593  -5.585   9.025  0.00  0.00    +0.145 HD
ENDBRANCH   1   2
BRANCH   1   7
ATOM      7  CA  ASN A   1      -1.487  -8.042  11.441  0.00  0.00    +0.142 C 
BRANCH   7   8
ATOM      8  N   ASN A   1      -1.778  -9.450  11.198  0.00  0.00    -0.239 NA
ATOM      9  H   ASN A   1      -2.686  -9.709  10.761  0.00  0.00    +0.142 HD
ENDBRANCH   7   8
BRANCH   7  10
ATOM     10  C   ASN A   1      -2.026  -7.598  12.799  0.00  0.00    +0.225 C 
ATOM     11  O   ASN A   1      -2.679  -6.551  12.923  0.00  0.00    -0.287 OA
ENDBRANCH   7  10
ENDBRANCH   1   7
TORSDOF 4
REMARK  Name = ../refined-set-2016/4ruy/4ruy_pocket.pdb
REMARK  147 active torsions:
REMARK  status: ('A' for Active; 'I' for Inactive)
REMARK    1  A    between atoms: _1  and  _3
REMARK    2  A    between atoms: _3  and  _4
REMARK    3  A    between atoms: _3  and  _6
REMARK    4  A    between atoms: _6  and  _7
REMARK    5  A    between atoms: _17  and  _19
REMARK    6  A    between atoms: _19  and  _20
REMARK    7  A    between atoms: _19  and  _22
REMARK    8  A    between atoms: _22  and  _23
REMARK    9  A    between atoms: _28  and  _29
REMARK   10  A    between atoms: _31  and  _33
REMARK   11  A    between atoms: _33  and  _34
REMARK   12  A    between atoms: _33  and  _36
REMARK   13  A    between atoms: _36  and  _37
REMARK   14  A    between atoms: _40  and  _41
REMARK   15  A    between atoms: _46  and  _48
REMARK   16  A    between atoms: _48  and  _49
REMARK   17  A    between atoms: _48  and  _51
REMARK   18  A    between atoms: _51  and  _52
REMARK   19  A    between atoms: _57  and  _59
REMARK   20  A    between atoms: _59  and  _60
REMARK   21  A    between atoms: _63  and  _65
REMARK   22  A    between atoms: _65  and  _66
REMARK   23  A    between atoms: _65  and  _68
REMARK   24  A    between atoms: _68  and  _69
REMARK   25  A    between atoms: _74  and  _76
REMARK   26  A    between atoms: _76  and  _77
REMARK   27  A    between atoms: _76  and  _79
REMARK   28  A    between atoms: _79  and  _80
REMARK   29  A    between atoms: _83  and  _85
REMARK   30  A    between atoms: _85  and  _86
REMARK   31  A    between atoms: _85  and  _88
REMARK   32  A    between atoms: _88  and  _89
REMARK   33  A    between atoms: _89  and  _90
REMARK   34  A    between atoms: _95  and  _97
REMARK   35  A    between atoms: _97  and  _98
REMARK   36  A    between atoms: _97  and  _100
REMARK   37  A    between atoms: _100  and  _101
REMARK   38  A    between atoms: _107  and  _109
REMARK   39  A    between atoms: _120  and  _123
REMARK   40  A    between atoms: _123  and  _124
REMARK   41  A    between atoms: _132  and  _133
REMARK   42  A    between atoms: _141  and  _143
REMARK   43  A    between atoms: _143  and  _144
REMARK   44  A    between atoms: _143  and  _146
REMARK   45  A    between atoms: _146  and  _147
REMARK   46  A    between atoms: _147  and  _148
REMARK   47  A    between atoms: _151  and  _153
REMARK   48  A    between atoms: _153  and  _154
REMARK   49  A    between atoms: _153  and  _156
REMARK   50  A    between atoms: _156  and  _157
REMARK   51  A    between atoms: _162  and  _164
REMARK   52  A    between atoms: _164  and  _165
REMARK   53  A    between atoms: _164  and  _167
REMARK   54  A    between atoms: _167  and  _168
REMARK   55  A    between atoms: _168  and  _169
REMARK   56  A    between atoms: _172  and  _174
REMARK   57  A    between atoms: _174  and  _175
REMARK   58  A    between atoms: _174  and  _177
REMARK   59  A    between atoms: _177  and  _178
REMARK   60  A    between atoms: _181  and  _183
REMARK   61  A    between atoms: _183  and  _184
REMARK   62  A    between atoms: _183  and  _186
REMARK   63  A    between atoms: _186  and  _187
REMARK   64  A    between atoms: _188  and  ZN_413
REMARK   65  A    between atoms: _192  and  _194
REMARK   66  A    between atoms: _194  and  _195
REMARK   67  A    between atoms: _194  and  _197
REMARK   68  A    between atoms: _197  and  _198
REMARK   69  A    between atoms: _201  and  _203
REMARK   70  A    between atoms: _203  and  _204
REMARK   71  A    between atoms: _203  and  _206
REMARK   72  A    between atoms: _209  and  _211
REMARK   73  A    between atoms: _211  and  _212
REMARK   74  A    between atoms: _211  and  _214
REMARK   75  A    between atoms: _214  and  _215
REMARK   76  A    between atoms: _220  and  _222
REMARK   77  A    between atoms: _222  and  _223
REMARK   78  A    between atoms: _222  and  _225
REMARK   79  A    between atoms: _225  and  _226
REMARK   80  A    between atoms: _232  and  _234
REMARK   81  A    between atoms: _234  and  _235
REMARK   82  A    between atoms: _237  and  _239
REMARK   83  A    between atoms: _239  and  _240
REMARK   84  A    between atoms: _239  and  _242
REMARK   85  A    between atoms: _245  and  _247
REMARK   86  A    between atoms: _247  and  _248
REMARK   87  A    between atoms: _247  and  _250
REMARK   88  A    between atoms: _250  and  _251
REMARK   89  A    between atoms: _254  and  _256
REMARK   90  A    between atoms: _256  and  _257
REMARK   91  A    between atoms: _260  and  _262
REMARK   92  A    between atoms: _262  and  _263
REMARK   93  A    between atoms: _262  and  _265
REMARK   94  A    between atoms: _268  and  _270
REMARK   95  A    between atoms: _270  and  _271
REMARK   96  A    between atoms: _270  and  _273
REMARK   97  A    between atoms: _273  and  _274
REMARK   98  A    between atoms: _277  and  _279
REMARK   99  A    between atoms: _279  and  _280
REMARK  100  A    between atoms: _282  and  _284
REMARK  101  A    between atoms: _284  and  _285
REMARK  102  A    between atoms: _287  and  _289
REMARK  103  A    between atoms: _289  and  _290
REMARK  104  A    between atoms: _289  and  _292
REMARK  105  A    between atoms: _292  and  _293
REMARK  106  A    between atoms: _295  and  _297
REMARK  107  A    between atoms: _297  and  _298
REMARK  108  A    between atoms: _297  and  _300
REMARK  109  A    between atoms: _300  and  _301
REMARK  110  A    between atoms: _304  and  _306
REMARK  111  A    between atoms: _306  and  _307
REMARK  112  A    between atoms: _306  and  _309
REMARK  113  A    between atoms: _309  and  _310
REMARK  114  A    between atoms: _313  and  _315
REMARK  115  A    between atoms: _315  and  _316
REMARK  116  A    between atoms: _315  and  _318
REMARK  117  A    between atoms: _318  and  _319
REMARK  118  A    between atoms: _323  and  _324
REMARK  119  A    between atoms: _330  and  _331
REMARK  120  A    between atoms: _336  and  _338
REMARK  121  A    between atoms: _338  and  _339
REMARK  122  A    between atoms: _338  and  _341
REMARK  123  A    between atoms: _341  and  _342
REMARK  124  A    between atoms: _345  and  _347
REMARK  125  A    between atoms: _347  and  _348
REMARK  126  A    between atoms: _347  and  _350
REMARK  127  A    between atoms: _350  and  _351
REMARK  128  A    between atoms: _354  and  _356
REMARK  129  A    between atoms: _356  and  _357
REMARK  130  A    between atoms: _356  and  _359
REMARK  131  A    between atoms: _361  and  _363
REMARK  132  A    between atoms: _363  and  _364
REMARK  133  A    between atoms: _363  and  _366
REMARK  134  A    between atoms: _369  and  _371
REMARK  135  A    between atoms: _371  and  _372
REMARK  136  A    between atoms: _371  and  _374
REMARK  137  A    between atoms: _374  and  _375
REMARK  138  A    between atoms: _385  and  _387
REMARK  139  A    between atoms: _387  and  _388
REMARK  140  A    between atoms: _387  and  _390
REMARK  141  A    between atoms: _390  and  _391
REMARK  142  A    between atoms: _396  and  _398
REMARK  143  A    between atoms: _398  and  _399
REMARK  144  A    between atoms: _398  and  _401
REMARK  145  A    between atoms: _401  and  _402
REMARK  146  A    between atoms: _402  and  _403
REMARK  147  A    between atoms: _403  and  _404
REMARK                            x       y       z     vdW  Elec       q    Type
REMARK                         _______ _______ _______ _____ _____    ______ ____
ROOT
ATOM      1  NE  ARG A   1       2.236  -3.729  21.017  0.00  0.00    -0.265 N 
ATOM      2  CZ  ARG A   1       2.411  -2.728  21.876  0.00  0.00    +0.342 C 
ATOM      3  NH2 ARG A   1       3.624  -2.500  22.367  0.00  0.00    -0.292 N 
ATOM      4 HH21 ARG A   1       3.775  -1.721  23.039  0.00  0.00    +0.255 HD
ATOM      5 HH22 ARG A   1       4.423  -3.101  22.079  0.00  0.00    +0.255 HD
ATOM      6  NH1 ARG A   1       1.395  -1.957  22.243  0.00  0.00    -0.292 N 
ATOM      7 HH11 ARG A   1       1.549  -1.179  22.915  0.00  0.00    +0.255 HD
ATOM      8 HH12 ARG A   1       0.445  -2.131  21.858  0.00  0.00    +0.255 HD
ATOM      9  HE  ARG A   1       3.062  -4.319  20.794  0.00  0.00    +0.259 HD
ENDROOT
BRANCH   1  10
ATOM     10  CD  ARG A   1       0.972  -4.063  20.363  0.00  0.00    +0.174 C 
BRANCH  10  11
ATOM     11  CG  ARG A   1       1.053  -5.422  19.706  0.00  0.00    +0.045 C 
BRANCH  11  12
ATOM     12  CB  ARG A   1      -0.042  -5.635  18.691  0.00  0.00    +0.029 C 
BRANCH  12  13
ATOM     13  CA  ARG A   1      -0.157  -7.076  18.184  0.00  0.00    +0.133 C 
BRANCH  13  14
ATOM     14  N   ARG A   1      -1.100  -7.149  17.086  0.00  0.00    -0.239 NA
ATOM     15  H   ARG A   1      -1.888  -6.472  17.054  0.00  0.00    +0.142 HD
ENDBRANCH  13  14
BRANCH  13  16
ATOM     16  C   ARG A   1      -0.658  -7.974  19.314  0.00  0.00    +0.224 C 
ATOM     17  O   ARG A   1      -1.840  -7.974  19.625  0.00  0.00    -0.287 OA
ENDBRANCH  13  16
ENDBRANCH  12  13
ENDBRANCH  11  12
ENDBRANCH  10  11
ENDBRANCH   1  10
TORSDOF 6
REMARK  Name = ../refined-set-2016/4ruy/4ruy_pocket.pdb
REMARK  147 active torsions:
REMARK  status: ('A' for Active; 'I' for Inactive)
REMARK    1  A    between atoms: _1  and  _3
REMARK    2  A    between atoms: _3  and  _4
REMARK    3  A    between atoms: _3  and  _6
REMARK    4  A    between atoms: _6  and  _7
REMARK    5  A    between atoms: _17  and  _19
REMARK    6  A    between atoms: _19  and  _20
REMARK    7  A    between atoms: _19  and  _22
REMARK    8  A    between atoms: _22  and  _23
REMARK    9  A    between atoms: _28  and  _29
REMARK   10  A    between atoms: _31  and  _33
REMARK   11  A    between atoms: _33  and  _34
REMARK   12  A    between atoms: _33  and  _36
REMARK   13  A    between atoms: _36  and  _37
REMARK   14  A    between atoms: _40  and  _41
REMARK   15  A    between atoms: _46  and  _48
REMARK   16  A    between atoms: _48  and  _49
REMARK   17  A    between atoms: _48  and  _51
REMARK   18  A    between atoms: _51  and  _52
REMARK   19  A    between atoms: _57  and  _59
REMARK   20  A    between atoms: _59  and  _60
REMARK   21  A    between atoms: _63  and  _65
REMARK   22  A    between atoms: _65  and  _66
REMARK   23  A    between atoms: _65  and  _68
REMARK   24  A    between atoms: _68  and  _69
REMARK   25  A    between atoms: _74  and  _76
REMARK   26  A    between atoms: _76  and  _77
REMARK   27  A    between atoms: _76  and  _79
REMARK   28  A    between atoms: _79  and  _80
REMARK   29  A    between atoms: _83  and  _85
REMARK   30  A    between atoms: _85  and  _86
REMARK   31  A    between atoms: _85  and  _88
REMARK   32  A    between atoms: _88  and  _89
REMARK   33  A    between atoms: _89  and  _90
REMARK   34  A    between atoms: _95  and  _97
REMARK   35  A    between atoms: _97  and  _98
REMARK   36  A    between atoms: _97  and  _100
REMARK   37  A    between atoms: _100  and  _101
REMARK   38  A    between atoms: _107  and  _109
REMARK   39  A    between atoms: _120  and  _123
REMARK   40  A    between atoms: _123  and  _124
REMARK   41  A    between atoms: _132  and  _133
REMARK   42  A    between atoms: _141  and  _143
REMARK   43  A    between atoms: _143  and  _144
REMARK   44  A    between atoms: _143  and  _146
REMARK   45  A    between atoms: _146  and  _147
REMARK   46  A    between atoms: _147  and  _148
REMARK   47  A    between atoms: _151  and  _153
REMARK   48  A    between atoms: _153  and  _154
REMARK   49  A    between atoms: _153  and  _156
REMARK   50  A    between atoms: _156  and  _157
REMARK   51  A    between atoms: _162  and  _164
REMARK   52  A    between atoms: _164  and  _165
REMARK   53  A    between atoms: _164  and  _167
REMARK   54  A    between atoms: _167  and  _168
REMARK   55  A    between atoms: _168  and  _169
REMARK   56  A    between atoms: _172  and  _174
REMARK   57  A    between atoms: _174  and  _175
REMARK   58  A    between atoms: _174  and  _177
REMARK   59  A    between atoms: _177  and  _178
REMARK   60  A    between atoms: _181  and  _183
REMARK   61  A    between atoms: _183  and  _184
REMARK   62  A    between atoms: _183  and  _186
REMARK   63  A    between atoms: _186  and  _187
REMARK   64  A    between atoms: _188  and  ZN_413
REMARK   65  A    between atoms: _192  and  _194
REMARK   66  A    between atoms: _194  and  _195
REMARK   67  A    between atoms: _194  and  _197
REMARK   68  A    between atoms: _197  and  _198
REMARK   69  A    between atoms: _201  and  _203
REMARK   70  A    between atoms: _203  and  _204
REMARK   71  A    between atoms: _203  and  _206
REMARK   72  A    between atoms: _209  and  _211
REMARK   73  A    between atoms: _211  and  _212
REMARK   74  A    between atoms: _211  and  _214
REMARK   75  A    between atoms: _214  and  _215
REMARK   76  A    between atoms: _220  and  _222
REMARK   77  A    between atoms: _222  and  _223
REMARK   78  A    between atoms: _222  and  _225
REMARK   79  A    between atoms: _225  and  _226
REMARK   80  A    between atoms: _232  and  _234
REMARK   81  A    between atoms: _234  and  _235
REMARK   82  A    between atoms: _237  and  _239
REMARK   83  A    between atoms: _239  and  _240
REMARK   84  A    between atoms: _239  and  _242
REMARK   85  A    between atoms: _245  and  _247
REMARK   86  A    between atoms: _247  and  _248
REMARK   87  A    between atoms: _247  and  _250
REMARK   88  A    between atoms: _250  and  _251
REMARK   89  A    between atoms: _254  and  _256
REMARK   90  A    between atoms: _256  and  _257
REMARK   91  A    between atoms: _260  and  _262
REMARK   92  A    between atoms: _262  and  _263
REMARK   93  A    between atoms: _262  and  _265
REMARK   94  A    between atoms: _268  and  _270
REMARK   95  A    between atoms: _270  and  _271
REMARK   96  A    between atoms: _270  and  _273
REMARK   97  A    between atoms: _273  and  _274
REMARK   98  A    between atoms: _277  and  _279
REMARK   99  A    between atoms: _279  and  _280
REMARK  100  A    between atoms: _282  and  _284
REMARK  101  A    between atoms: _284  and  _285
REMARK  102  A    between atoms: _287  and  _289
REMARK  103  A    between atoms: _289  and  _290
REMARK  104  A    between atoms: _289  and  _292
REMARK  105  A    between atoms: _292  and  _293
REMARK  106  A    between atoms: _295  and  _297
REMARK  107  A    between atoms: _297  and  _298
REMARK  108  A    between atoms: _297  and  _300
REMARK  109  A    between atoms: _300  and  _301
REMARK  110  A    between atoms: _304  and  _306
REMARK  111  A    between atoms: _306  and  _307
REMARK  112  A    between atoms: _306  and  _309
REMARK  113  A    between atoms: _309  and  _310
REMARK  114  A    between atoms: _313  and  _315
REMARK  115  A    between atoms: _315  and  _316
REMARK  116  A    between atoms: _315  and  _318
REMARK  117  A    between atoms: _318  and  _319
REMARK  118  A    between atoms: _323  and  _324
REMARK  119  A    between atoms: _330  and  _331
REMARK  120  A    between atoms: _336  and  _338
REMARK  121  A    between atoms: _338  and  _339
REMARK  122  A    between atoms: _338  and  _341
REMARK  123  A    between atoms: _341  and  _342
REMARK  124  A    between atoms: _345  and  _347
REMARK  125  A    between atoms: _347  and  _348
REMARK  126  A    between atoms: _347  and  _350
REMARK  127  A    between atoms: _350  and  _351
REMARK  128  A    between atoms: _354  and  _356
REMARK  129  A    between atoms: _356  and  _357
REMARK  130  A    between atoms: _356  and  _359
REMARK  131  A    between atoms: _361  and  _363
REMARK  132  A    between atoms: _363  and  _364
REMARK  133  A    between atoms: _363  and  _366
REMARK  134  A    between atoms: _369  and  _371
REMARK  135  A    between atoms: _371  and  _372
REMARK  136  A    between atoms: _371  and  _374
REMARK  137  A    between atoms: _374  and  _375
REMARK  138  A    between atoms: _385  and  _387
REMARK  139  A    between atoms: _387  and  _388
REMARK  140  A    between atoms: _387  and  _390
REMARK  141  A    between atoms: _390  and  _391
REMARK  142  A    between atoms: _396  and  _398
REMARK  143  A    between atoms: _398  and  _399
REMARK  144  A    between atoms: _398  and  _401
REMARK  145  A    between atoms: _401  and  _402
REMARK  146  A    between atoms: _402  and  _403
REMARK  147  A    between atoms: _403  and  _404
REMARK                            x       y       z     vdW  Elec       q    Type
REMARK                         _______ _______ _______ _____ _____    ______ ____
ROOT
ATOM      1  O   HOH     1      -1.226  -4.007  15.691  0.00  0.00    +0.000 OA
ENDROOT
TORSDOF 0
REMARK  Name = ../refined-set-2016/4ruy/4ruy_pocket.pdb
REMARK  147 active torsions:
REMARK  status: ('A' for Active; 'I' for Inactive)
REMARK    1  A    between atoms: _1  and  _3
REMARK    2  A    between atoms: _3  and  _4
REMARK    3  A    between atoms: _3  and  _6
REMARK    4  A    between atoms: _6  and  _7
REMARK    5  A    between atoms: _17  and  _19
REMARK    6  A    between atoms: _19  and  _20
REMARK    7  A    between atoms: _19  and  _22
REMARK    8  A    between atoms: _22  and  _23
REMARK    9  A    between atoms: _28  and  _29
REMARK   10  A    between atoms: _31  and  _33
REMARK   11  A    between atoms: _33  and  _34
REMARK   12  A    between atoms: _33  and  _36
REMARK   13  A    between atoms: _36  and  _37
REMARK   14  A    between atoms: _40  and  _41
REMARK   15  A    between atoms: _46  and  _48
REMARK   16  A    between atoms: _48  and  _49
REMARK   17  A    between atoms: _48  and  _51
REMARK   18  A    between atoms: _51  and  _52
REMARK   19  A    between atoms: _57  and  _59
REMARK   20  A    between atoms: _59  and  _60
REMARK   21  A    between atoms: _63  and  _65
REMARK   22  A    between atoms: _65  and  _66
REMARK   23  A    between atoms: _65  and  _68
REMARK   24  A    between atoms: _68  and  _69
REMARK   25  A    between atoms: _74  and  _76
REMARK   26  A    between atoms: _76  and  _77
REMARK   27  A    between atoms: _76  and  _79
REMARK   28  A    between atoms: _79  and  _80
REMARK   29  A    between atoms: _83  and  _85
REMARK   30  A    between atoms: _85  and  _86
REMARK   31  A    between atoms: _85  and  _88
REMARK   32  A    between atoms: _88  and  _89
REMARK   33  A    between atoms: _89  and  _90
REMARK   34  A    between atoms: _95  and  _97
REMARK   35  A    between atoms: _97  and  _98
REMARK   36  A    between atoms: _97  and  _100
REMARK   37  A    between atoms: _100  and  _101
REMARK   38  A    between atoms: _107  and  _109
REMARK   39  A    between atoms: _120  and  _123
REMARK   40  A    between atoms: _123  and  _124
REMARK   41  A    between atoms: _132  and  _133
REMARK   42  A    between atoms: _141  and  _143
REMARK   43  A    between atoms: _143  and  _144
REMARK   44  A    between atoms: _143  and  _146
REMARK   45  A    between atoms: _146  and  _147
REMARK   46  A    between atoms: _147  and  _148
REMARK   47  A    between atoms: _151  and  _153
REMARK   48  A    between atoms: _153  and  _154
REMARK   49  A    between atoms: _153  and  _156
REMARK   50  A    between atoms: _156  and  _157
REMARK   51  A    between atoms: _162  and  _164
REMARK   52  A    between atoms: _164  and  _165
REMARK   53  A    between atoms: _164  and  _167
REMARK   54  A    between atoms: _167  and  _168
REMARK   55  A    between atoms: _168  and  _169
REMARK   56  A    between atoms: _172  and  _174
REMARK   57  A    between atoms: _174  and  _175
REMARK   58  A    between atoms: _174  and  _177
REMARK   59  A    between atoms: _177  and  _178
REMARK   60  A    between atoms: _181  and  _183
REMARK   61  A    between atoms: _183  and  _184
REMARK   62  A    between atoms: _183  and  _186
REMARK   63  A    between atoms: _186  and  _187
REMARK   64  A    between atoms: _188  and  ZN_413
REMARK   65  A    between atoms: _192  and  _194
REMARK   66  A    between atoms: _194  and  _195
REMARK   67  A    between atoms: _194  and  _197
REMARK   68  A    between atoms: _197  and  _198
REMARK   69  A    between atoms: _201  and  _203
REMARK   70  A    between atoms: _203  and  _204
REMARK   71  A    between atoms: _203  and  _206
REMARK   72  A    between atoms: _209  and  _211
REMARK   73  A    between atoms: _211  and  _212
REMARK   74  A    between atoms: _211  and  _214
REMARK   75  A    between atoms: _214  and  _215
REMARK   76  A    between atoms: _220  and  _222
REMARK   77  A    between atoms: _222  and  _223
REMARK   78  A    between atoms: _222  and  _225
REMARK   79  A    between atoms: _225  and  _226
REMARK   80  A    between atoms: _232  and  _234
REMARK   81  A    between atoms: _234  and  _235
REMARK   82  A    between atoms: _237  and  _239
REMARK   83  A    between atoms: _239  and  _240
REMARK   84  A    between atoms: _239  and  _242
REMARK   85  A    between atoms: _245  and  _247
REMARK   86  A    between atoms: _247  and  _248
REMARK   87  A    between atoms: _247  and  _250
REMARK   88  A    between atoms: _250  and  _251
REMARK   89  A    between atoms: _254  and  _256
REMARK   90  A    between atoms: _256  and  _257
REMARK   91  A    between atoms: _260  and  _262
REMARK   92  A    between atoms: _262  and  _263
REMARK   93  A    between atoms: _262  and  _265
REMARK   94  A    between atoms: _268  and  _270
REMARK   95  A    between atoms: _270  and  _271
REMARK   96  A    between atoms: _270  and  _273
REMARK   97  A    between atoms: _273  and  _274
REMARK   98  A    between atoms: _277  and  _279
REMARK   99  A    between atoms: _279  and  _280
REMARK  100  A    between atoms: _282  and  _284
REMARK  101  A    between atoms: _284  and  _285
REMARK  102  A    between atoms: _287  and  _289
REMARK  103  A    between atoms: _289  and  _290
REMARK  104  A    between atoms: _289  and  _292
REMARK  105  A    between atoms: _292  and  _293
REMARK  106  A    between atoms: _295  and  _297
REMARK  107  A    between atoms: _297  and  _298
REMARK  108  A    between atoms: _297  and  _300
REMARK  109  A    between atoms: _300  and  _301
REMARK  110  A    between atoms: _304  and  _306
REMARK  111  A    between atoms: _306  and  _307
REMARK  112  A    between atoms: _306  and  _309
REMARK  113  A    between atoms: _309  and  _310
REMARK  114  A    between atoms: _313  and  _315
REMARK  115  A    between atoms: _315  and  _316
REMARK  116  A    between atoms: _315  and  _318
REMARK  117  A    between atoms: _318  and  _319
REMARK  118  A    between atoms: _323  and  _324
REMARK  119  A    between atoms: _330  and  _331
REMARK  120  A    between atoms: _336  and  _338
REMARK  121  A    between atoms: _338  and  _339
REMARK  122  A    between atoms: _338  and  _341
REMARK  123  A    between atoms: _341  and  _342
REMARK  124  A    between atoms: _345  and  _347
REMARK  125  A    between atoms: _347  and  _348
REMARK  126  A    between atoms: _347  and  _350
REMARK  127  A    between atoms: _350  and  _351
REMARK  128  A    between atoms: _354  and  _356
REMARK  129  A    between atoms: _356  and  _357
REMARK  130  A    between atoms: _356  and  _359
REMARK  131  A    between atoms: _361  and  _363
REMARK  132  A    between atoms: _363  and  _364
REMARK  133  A    between atoms: _363  and  _366
REMARK  134  A    between atoms: _369  and  _371
REMARK  135  A    between atoms: _371  and  _372
REMARK  136  A    between atoms: _371  and  _374
REMARK  137  A    between atoms: _374  and  _375
REMARK  138  A    between atoms: _385  and  _387
REMARK  139  A    between atoms: _387  and  _388
REMARK  140  A    between atoms: _387  and  _390
REMARK  141  A    between atoms: _390  and  _391
REMARK  142  A    between atoms: _396  and  _398
REMARK  143  A    between atoms: _398  and  _399
REMARK  144  A    between atoms: _398  and  _401
REMARK  145  A    between atoms: _401  and  _402
REMARK  146  A    between atoms: _402  and  _403
REMARK  147  A    between atoms: _403  and  _404
REMARK                            x       y       z     vdW  Elec       q    Type
REMARK                         _______ _______ _______ _____ _____    ______ ____
ROOT
ATOM      1  O   HOH     1      -2.491  -3.186  11.411  0.00  0.00    +0.000 OA
ENDROOT
TORSDOF 0
REMARK  Name = ../refined-set-2016/4ruy/4ruy_pocket.pdb
REMARK  147 active torsions:
REMARK  status: ('A' for Active; 'I' for Inactive)
REMARK    1  A    between atoms: _1  and  _3
REMARK    2  A    between atoms: _3  and  _4
REMARK    3  A    between atoms: _3  and  _6
REMARK    4  A    between atoms: _6  and  _7
REMARK    5  A    between atoms: _17  and  _19
REMARK    6  A    between atoms: _19  and  _20
REMARK    7  A    between atoms: _19  and  _22
REMARK    8  A    between atoms: _22  and  _23
REMARK    9  A    between atoms: _28  and  _29
REMARK   10  A    between atoms: _31  and  _33
REMARK   11  A    between atoms: _33  and  _34
REMARK   12  A    between atoms: _33  and  _36
REMARK   13  A    between atoms: _36  and  _37
REMARK   14  A    between atoms: _40  and  _41
REMARK   15  A    between atoms: _46  and  _48
REMARK   16  A    between atoms: _48  and  _49
REMARK   17  A    between atoms: _48  and  _51
REMARK   18  A    between atoms: _51  and  _52
REMARK   19  A    between atoms: _57  and  _59
REMARK   20  A    between atoms: _59  and  _60
REMARK   21  A    between atoms: _63  and  _65
REMARK   22  A    between atoms: _65  and  _66
REMARK   23  A    between atoms: _65  and  _68
REMARK   24  A    between atoms: _68  and  _69
REMARK   25  A    between atoms: _74  and  _76
REMARK   26  A    between atoms: _76  and  _77
REMARK   27  A    between atoms: _76  and  _79
REMARK   28  A    between atoms: _79  and  _80
REMARK   29  A    between atoms: _83  and  _85
REMARK   30  A    between atoms: _85  and  _86
REMARK   31  A    between atoms: _85  and  _88
REMARK   32  A    between atoms: _88  and  _89
REMARK   33  A    between atoms: _89  and  _90
REMARK   34  A    between atoms: _95  and  _97
REMARK   35  A    between atoms: _97  and  _98
REMARK   36  A    between atoms: _97  and  _100
REMARK   37  A    between atoms: _100  and  _101
REMARK   38  A    between atoms: _107  and  _109
REMARK   39  A    between atoms: _120  and  _123
REMARK   40  A    between atoms: _123  and  _124
REMARK   41  A    between atoms: _132  and  _133
REMARK   42  A    between atoms: _141  and  _143
REMARK   43  A    between atoms: _143  and  _144
REMARK   44  A    between atoms: _143  and  _146
REMARK   45  A    between atoms: _146  and  _147
REMARK   46  A    between atoms: _147  and  _148
REMARK   47  A    between atoms: _151  and  _153
REMARK   48  A    between atoms: _153  and  _154
REMARK   49  A    between atoms: _153  and  _156
REMARK   50  A    between atoms: _156  and  _157
REMARK   51  A    between atoms: _162  and  _164
REMARK   52  A    between atoms: _164  and  _165
REMARK   53  A    between atoms: _164  and  _167
REMARK   54  A    between atoms: _167  and  _168
REMARK   55  A    between atoms: _168  and  _169
REMARK   56  A    between atoms: _172  and  _174
REMARK   57  A    between atoms: _174  and  _175
REMARK   58  A    between atoms: _174  and  _177
REMARK   59  A    between atoms: _177  and  _178
REMARK   60  A    between atoms: _181  and  _183
REMARK   61  A    between atoms: _183  and  _184
REMARK   62  A    between atoms: _183  and  _186
REMARK   63  A    between atoms: _186  and  _187
REMARK   64  A    between atoms: _188  and  ZN_413
REMARK   65  A    between atoms: _192  and  _194
REMARK   66  A    between atoms: _194  and  _195
REMARK   67  A    between atoms: _194  and  _197
REMARK   68  A    between atoms: _197  and  _198
REMARK   69  A    between atoms: _201  and  _203
REMARK   70  A    between atoms: _203  and  _204
REMARK   71  A    between atoms: _203  and  _206
REMARK   72  A    between atoms: _209  and  _211
REMARK   73  A    between atoms: _211  and  _212
REMARK   74  A    between atoms: _211  and  _214
REMARK   75  A    between atoms: _214  and  _215
REMARK   76  A    between atoms: _220  and  _222
REMARK   77  A    between atoms: _222  and  _223
REMARK   78  A    between atoms: _222  and  _225
REMARK   79  A    between atoms: _225  and  _226
REMARK   80  A    between atoms: _232  and  _234
REMARK   81  A    between atoms: _234  and  _235
REMARK   82  A    between atoms: _237  and  _239
REMARK   83  A    between atoms: _239  and  _240
REMARK   84  A    between atoms: _239  and  _242
REMARK   85  A    between atoms: _245  and  _247
REMARK   86  A    between atoms: _247  and  _248
REMARK   87  A    between atoms: _247  and  _250
REMARK   88  A    between atoms: _250  and  _251
REMARK   89  A    between atoms: _254  and  _256
REMARK   90  A    between atoms: _256  and  _257
REMARK   91  A    between atoms: _260  and  _262
REMARK   92  A    between atoms: _262  and  _263
REMARK   93  A    between atoms: _262  and  _265
REMARK   94  A    between atoms: _268  and  _270
REMARK   95  A    between atoms: _270  and  _271
REMARK   96  A    between atoms: _270  and  _273
REMARK   97  A    between atoms: _273  and  _274
REMARK   98  A    between atoms: _277  and  _279
REMARK   99  A    between atoms: _279  and  _280
REMARK  100  A    between atoms: _282  and  _284
REMARK  101  A    between atoms: _284  and  _285
REMARK  102  A    between atoms: _287  and  _289
REMARK  103  A    between atoms: _289  and  _290
REMARK  104  A    between atoms: _289  and  _292
REMARK  105  A    between atoms: _292  and  _293
REMARK  106  A    between atoms: _295  and  _297
REMARK  107  A    between atoms: _297  and  _298
REMARK  108  A    between atoms: _297  and  _300
REMARK  109  A    between atoms: _300  and  _301
REMARK  110  A    between atoms: _304  and  _306
REMARK  111  A    between atoms: _306  and  _307
REMARK  112  A    between atoms: _306  and  _309
REMARK  113  A    between atoms: _309  and  _310
REMARK  114  A    between atoms: _313  and  _315
REMARK  115  A    between atoms: _315  and  _316
REMARK  116  A    between atoms: _315  and  _318
REMARK  117  A    between atoms: _318  and  _319
REMARK  118  A    between atoms: _323  and  _324
REMARK  119  A    between atoms: _330  and  _331
REMARK  120  A    between atoms: _336  and  _338
REMARK  121  A    between atoms: _338  and  _339
REMARK  122  A    between atoms: _338  and  _341
REMARK  123  A    between atoms: _341  and  _342
REMARK  124  A    between atoms: _345  and  _347
REMARK  125  A    between atoms: _347  and  _348
REMARK  126  A    between atoms: _347  and  _350
REMARK  127  A    between atoms: _350  and  _351
REMARK  128  A    between atoms: _354  and  _356
REMARK  129  A    between atoms: _356  and  _357
REMARK  130  A    between atoms: _356  and  _359
REMARK  131  A    between atoms: _361  and  _363
REMARK  132  A    between atoms: _363  and  _364
REMARK  133  A    between atoms: _363  and  _366
REMARK  134  A    between atoms: _369  and  _371
REMARK  135  A    between atoms: _371  and  _372
REMARK  136  A    between atoms: _371  and  _374
REMARK  137  A    between atoms: _374  and  _375
REMARK  138  A    between atoms: _385  and  _387
REMARK  139  A    between atoms: _387  and  _388
REMARK  140  A    between atoms: _387  and  _390
REMARK  141  A    between atoms: _390  and  _391
REMARK  142  A    between atoms: _396  and  _398
REMARK  143  A    between atoms: _398  and  _399
REMARK  144  A    between atoms: _398  and  _401
REMARK  145  A    between atoms: _401  and  _402
REMARK  146  A    between atoms: _402  and  _403
REMARK  147  A    between atoms: _403  and  _404
REMARK                            x       y       z     vdW  Elec       q    Type
REMARK                         _______ _______ _______ _____ _____    ______ ____
ROOT
ATOM      1  O   HOH     1      -1.069   1.518  11.561  0.00  0.00    +0.000 OA
ENDROOT
TORSDOF 0
REMARK  Name = ../refined-set-2016/4ruy/4ruy_pocket.pdb
REMARK  147 active torsions:
REMARK  status: ('A' for Active; 'I' for Inactive)
REMARK    1  A    between atoms: _1  and  _3
REMARK    2  A    between atoms: _3  and  _4
REMARK    3  A    between atoms: _3  and  _6
REMARK    4  A    between atoms: _6  and  _7
REMARK    5  A    between atoms: _17  and  _19
REMARK    6  A    between atoms: _19  and  _20
REMARK    7  A    between atoms: _19  and  _22
REMARK    8  A    between atoms: _22  and  _23
REMARK    9  A    between atoms: _28  and  _29
REMARK   10  A    between atoms: _31  and  _33
REMARK   11  A    between atoms: _33  and  _34
REMARK   12  A    between atoms: _33  and  _36
REMARK   13  A    between atoms: _36  and  _37
REMARK   14  A    between atoms: _40  and  _41
REMARK   15  A    between atoms: _46  and  _48
REMARK   16  A    between atoms: _48  and  _49
REMARK   17  A    between atoms: _48  and  _51
REMARK   18  A    between atoms: _51  and  _52
REMARK   19  A    between atoms: _57  and  _59
REMARK   20  A    between atoms: _59  and  _60
REMARK   21  A    between atoms: _63  and  _65
REMARK   22  A    between atoms: _65  and  _66
REMARK   23  A    between atoms: _65  and  _68
REMARK   24  A    between atoms: _68  and  _69
REMARK   25  A    between atoms: _74  and  _76
REMARK   26  A    between atoms: _76  and  _77
REMARK   27  A    between atoms: _76  and  _79
REMARK   28  A    between atoms: _79  and  _80
REMARK   29  A    between atoms: _83  and  _85
REMARK   30  A    between atoms: _85  and  _86
REMARK   31  A    between atoms: _85  and  _88
REMARK   32  A    between atoms: _88  and  _89
REMARK   33  A    between atoms: _89  and  _90
REMARK   34  A    between atoms: _95  and  _97
REMARK   35  A    between atoms: _97  and  _98
REMARK   36  A    between atoms: _97  and  _100
REMARK   37  A    between atoms: _100  and  _101
REMARK   38  A    between atoms: _107  and  _109
REMARK   39  A    between atoms: _120  and  _123
REMARK   40  A    between atoms: _123  and  _124
REMARK   41  A    between atoms: _132  and  _133
REMARK   42  A    between atoms: _141  and  _143
REMARK   43  A    between atoms: _143  and  _144
REMARK   44  A    between atoms: _143  and  _146
REMARK   45  A    between atoms: _146  and  _147
REMARK   46  A    between atoms: _147  and  _148
REMARK   47  A    between atoms: _151  and  _153
REMARK   48  A    between atoms: _153  and  _154
REMARK   49  A    between atoms: _153  and  _156
REMARK   50  A    between atoms: _156  and  _157
REMARK   51  A    between atoms: _162  and  _164
REMARK   52  A    between atoms: _164  and  _165
REMARK   53  A    between atoms: _164  and  _167
REMARK   54  A    between atoms: _167  and  _168
REMARK   55  A    between atoms: _168  and  _169
REMARK   56  A    between atoms: _172  and  _174
REMARK   57  A    between atoms: _174  and  _175
REMARK   58  A    between atoms: _174  and  _177
REMARK   59  A    between atoms: _177  and  _178
REMARK   60  A    between atoms: _181  and  _183
REMARK   61  A    between atoms: _183  and  _184
REMARK   62  A    between atoms: _183  and  _186
REMARK   63  A    between atoms: _186  and  _187
REMARK   64  A    between atoms: _188  and  ZN_413
REMARK   65  A    between atoms: _192  and  _194
REMARK   66  A    between atoms: _194  and  _195
REMARK   67  A    between atoms: _194  and  _197
REMARK   68  A    between atoms: _197  and  _198
REMARK   69  A    between atoms: _201  and  _203
REMARK   70  A    between atoms: _203  and  _204
REMARK   71  A    between atoms: _203  and  _206
REMARK   72  A    between atoms: _209  and  _211
REMARK   73  A    between atoms: _211  and  _212
REMARK   74  A    between atoms: _211  and  _214
REMARK   75  A    between atoms: _214  and  _215
REMARK   76  A    between atoms: _220  and  _222
REMARK   77  A    between atoms: _222  and  _223
REMARK   78  A    between atoms: _222  and  _225
REMARK   79  A    between atoms: _225  and  _226
REMARK   80  A    between atoms: _232  and  _234
REMARK   81  A    between atoms: _234  and  _235
REMARK   82  A    between atoms: _237  and  _239
REMARK   83  A    between atoms: _239  and  _240
REMARK   84  A    between atoms: _239  and  _242
REMARK   85  A    between atoms: _245  and  _247
REMARK   86  A    between atoms: _247  and  _248
REMARK   87  A    between atoms: _247  and  _250
REMARK   88  A    between atoms: _250  and  _251
REMARK   89  A    between atoms: _254  and  _256
REMARK   90  A    between atoms: _256  and  _257
REMARK   91  A    between atoms: _260  and  _262
REMARK   92  A    between atoms: _262  and  _263
REMARK   93  A    between atoms: _262  and  _265
REMARK   94  A    between atoms: _268  and  _270
REMARK   95  A    between atoms: _270  and  _271
REMARK   96  A    between atoms: _270  and  _273
REMARK   97  A    between atoms: _273  and  _274
REMARK   98  A    between atoms: _277  and  _279
REMARK   99  A    between atoms: _279  and  _280
REMARK  100  A    between atoms: _282  and  _284
REMARK  101  A    between atoms: _284  and  _285
REMARK  102  A    between atoms: _287  and  _289
REMARK  103  A    between atoms: _289  and  _290
REMARK  104  A    between atoms: _289  and  _292
REMARK  105  A    between atoms: _292  and  _293
REMARK  106  A    between atoms: _295  and  _297
REMARK  107  A    between atoms: _297  and  _298
REMARK  108  A    between atoms: _297  and  _300
REMARK  109  A    between atoms: _300  and  _301
REMARK  110  A    between atoms: _304  and  _306
REMARK  111  A    between atoms: _306  and  _307
REMARK  112  A    between atoms: _306  and  _309
REMARK  113  A    between atoms: _309  and  _310
REMARK  114  A    between atoms: _313  and  _315
REMARK  115  A    between atoms: _315  and  _316
REMARK  116  A    between atoms: _315  and  _318
REMARK  117  A    between atoms: _318  and  _319
REMARK  118  A    between atoms: _323  and  _324
REMARK  119  A    between atoms: _330  and  _331
REMARK  120  A    between atoms: _336  and  _338
REMARK  121  A    between atoms: _338  and  _339
REMARK  122  A    between atoms: _338  and  _341
REMARK  123  A    between atoms: _341  and  _342
REMARK  124  A    between atoms: _345  and  _347
REMARK  125  A    between atoms: _347  and  _348
REMARK  126  A    between atoms: _347  and  _350
REMARK  127  A    between atoms: _350  and  _351
REMARK  128  A    between atoms: _354  and  _356
REMARK  129  A    between atoms: _356  and  _357
REMARK  130  A    between atoms: _356  and  _359
REMARK  131  A    between atoms: _361  and  _363
REMARK  132  A    between atoms: _363  and  _364
REMARK  133  A    between atoms: _363  and  _366
REMARK  134  A    between atoms: _369  and  _371
REMARK  135  A    between atoms: _371  and  _372
REMARK  136  A    between atoms: _371  and  _374
REMARK  137  A    between atoms: _374  and  _375
REMARK  138  A    between atoms: _385  and  _387
REMARK  139  A    between atoms: _387  and  _388
REMARK  140  A    between atoms: _387  and  _390
REMARK  141  A    between atoms: _390  and  _391
REMARK  142  A    between atoms: _396  and  _398
REMARK  143  A    between atoms: _398  and  _399
REMARK  144  A    between atoms: _398  and  _401
REMARK  145  A    between atoms: _401  and  _402
REMARK  146  A    between atoms: _402  and  _403
REMARK  147  A    between atoms: _403  and  _404
REMARK                            x       y       z     vdW  Elec       q    Type
REMARK                         _______ _______ _______ _____ _____    ______ ____
ROOT
ATOM      1  O   HOH     1      -7.010   6.046   6.632  0.00  0.00    +0.000 OA
ENDROOT
TORSDOF 0
REMARK  Name = ../refined-set-2016/4ruy/4ruy_pocket.pdb
REMARK  147 active torsions:
REMARK  status: ('A' for Active; 'I' for Inactive)
REMARK    1  A    between atoms: _1  and  _3
REMARK    2  A    between atoms: _3  and  _4
REMARK    3  A    between atoms: _3  and  _6
REMARK    4  A    between atoms: _6  and  _7
REMARK    5  A    between atoms: _17  and  _19
REMARK    6  A    between atoms: _19  and  _20
REMARK    7  A    between atoms: _19  and  _22
REMARK    8  A    between atoms: _22  and  _23
REMARK    9  A    between atoms: _28  and  _29
REMARK   10  A    between atoms: _31  and  _33
REMARK   11  A    between atoms: _33  and  _34
REMARK   12  A    between atoms: _33  and  _36
REMARK   13  A    between atoms: _36  and  _37
REMARK   14  A    between atoms: _40  and  _41
REMARK   15  A    between atoms: _46  and  _48
REMARK   16  A    between atoms: _48  and  _49
REMARK   17  A    between atoms: _48  and  _51
REMARK   18  A    between atoms: _51  and  _52
REMARK   19  A    between atoms: _57  and  _59
REMARK   20  A    between atoms: _59  and  _60
REMARK   21  A    between atoms: _63  and  _65
REMARK   22  A    between atoms: _65  and  _66
REMARK   23  A    between atoms: _65  and  _68
REMARK   24  A    between atoms: _68  and  _69
REMARK   25  A    between atoms: _74  and  _76
REMARK   26  A    between atoms: _76  and  _77
REMARK   27  A    between atoms: _76  and  _79
REMARK   28  A    between atoms: _79  and  _80
REMARK   29  A    between atoms: _83  and  _85
REMARK   30  A    between atoms: _85  and  _86
REMARK   31  A    between atoms: _85  and  _88
REMARK   32  A    between atoms: _88  and  _89
REMARK   33  A    between atoms: _89  and  _90
REMARK   34  A    between atoms: _95  and  _97
REMARK   35  A    between atoms: _97  and  _98
REMARK   36  A    between atoms: _97  and  _100
REMARK   37  A    between atoms: _100  and  _101
REMARK   38  A    between atoms: _107  and  _109
REMARK   39  A    between atoms: _120  and  _123
REMARK   40  A    between atoms: _123  and  _124
REMARK   41  A    between atoms: _132  and  _133
REMARK   42  A    between atoms: _141  and  _143
REMARK   43  A    between atoms: _143  and  _144
REMARK   44  A    between atoms: _143  and  _146
REMARK   45  A    between atoms: _146  and  _147
REMARK   46  A    between atoms: _147  and  _148
REMARK   47  A    between atoms: _151  and  _153
REMARK   48  A    between atoms: _153  and  _154
REMARK   49  A    between atoms: _153  and  _156
REMARK   50  A    between atoms: _156  and  _157
REMARK   51  A    between atoms: _162  and  _164
REMARK   52  A    between atoms: _164  and  _165
REMARK   53  A    between atoms: _164  and  _167
REMARK   54  A    between atoms: _167  and  _168
REMARK   55  A    between atoms: _168  and  _169
REMARK   56  A    between atoms: _172  and  _174
REMARK   57  A    between atoms: _174  and  _175
REMARK   58  A    between atoms: _174  and  _177
REMARK   59  A    between atoms: _177  and  _178
REMARK   60  A    between atoms: _181  and  _183
REMARK   61  A    between atoms: _183  and  _184
REMARK   62  A    between atoms: _183  and  _186
REMARK   63  A    between atoms: _186  and  _187
REMARK   64  A    between atoms: _188  and  ZN_413
REMARK   65  A    between atoms: _192  and  _194
REMARK   66  A    between atoms: _194  and  _195
REMARK   67  A    between atoms: _194  and  _197
REMARK   68  A    between atoms: _197  and  _198
REMARK   69  A    between atoms: _201  and  _203
REMARK   70  A    between atoms: _203  and  _204
REMARK   71  A    between atoms: _203  and  _206
REMARK   72  A    between atoms: _209  and  _211
REMARK   73  A    between atoms: _211  and  _212
REMARK   74  A    between atoms: _211  and  _214
REMARK   75  A    between atoms: _214  and  _215
REMARK   76  A    between atoms: _220  and  _222
REMARK   77  A    between atoms: _222  and  _223
REMARK   78  A    between atoms: _222  and  _225
REMARK   79  A    between atoms: _225  and  _226
REMARK   80  A    between atoms: _232  and  _234
REMARK   81  A    between atoms: _234  and  _235
REMARK   82  A    between atoms: _237  and  _239
REMARK   83  A    between atoms: _239  and  _240
REMARK   84  A    between atoms: _239  and  _242
REMARK   85  A    between atoms: _245  and  _247
REMARK   86  A    between atoms: _247  and  _248
REMARK   87  A    between atoms: _247  and  _250
REMARK   88  A    between atoms: _250  and  _251
REMARK   89  A    between atoms: _254  and  _256
REMARK   90  A    between atoms: _256  and  _257
REMARK   91  A    between atoms: _260  and  _262
REMARK   92  A    between atoms: _262  and  _263
REMARK   93  A    between atoms: _262  and  _265
REMARK   94  A    between atoms: _268  and  _270
REMARK   95  A    between atoms: _270  and  _271
REMARK   96  A    between atoms: _270  and  _273
REMARK   97  A    between atoms: _273  and  _274
REMARK   98  A    between atoms: _277  and  _279
REMARK   99  A    between atoms: _279  and  _280
REMARK  100  A    between atoms: _282  and  _284
REMARK  101  A    between atoms: _284  and  _285
REMARK  102  A    between atoms: _287  and  _289
REMARK  103  A    between atoms: _289  and  _290
REMARK  104  A    between atoms: _289  and  _292
REMARK  105  A    between atoms: _292  and  _293
REMARK  106  A    between atoms: _295  and  _297
REMARK  107  A    between atoms: _297  and  _298
REMARK  108  A    between atoms: _297  and  _300
REMARK  109  A    between atoms: _300  and  _301
REMARK  110  A    between atoms: _304  and  _306
REMARK  111  A    between atoms: _306  and  _307
REMARK  112  A    between atoms: _306  and  _309
REMARK  113  A    between atoms: _309  and  _310
REMARK  114  A    between atoms: _313  and  _315
REMARK  115  A    between atoms: _315  and  _316
REMARK  116  A    between atoms: _315  and  _318
REMARK  117  A    between atoms: _318  and  _319
REMARK  118  A    between atoms: _323  and  _324
REMARK  119  A    between atoms: _330  and  _331
REMARK  120  A    between atoms: _336  and  _338
REMARK  121  A    between atoms: _338  and  _339
REMARK  122  A    between atoms: _338  and  _341
REMARK  123  A    between atoms: _341  and  _342
REMARK  124  A    between atoms: _345  and  _347
REMARK  125  A    between atoms: _347  and  _348
REMARK  126  A    between atoms: _347  and  _350
REMARK  127  A    between atoms: _350  and  _351
REMARK  128  A    between atoms: _354  and  _356
REMARK  129  A    between atoms: _356  and  _357
REMARK  130  A    between atoms: _356  and  _359
REMARK  131  A    between atoms: _361  and  _363
REMARK  132  A    between atoms: _363  and  _364
REMARK  133  A    between atoms: _363  and  _366
REMARK  134  A    between atoms: _369  and  _371
REMARK  135  A    between atoms: _371  and  _372
REMARK  136  A    between atoms: _371  and  _374
REMARK  137  A    between atoms: _374  and  _375
REMARK  138  A    between atoms: _385  and  _387
REMARK  139  A    between atoms: _387  and  _388
REMARK  140  A    between atoms: _387  and  _390
REMARK  141  A    between atoms: _390  and  _391
REMARK  142  A    between atoms: _396  and  _398
REMARK  143  A    between atoms: _398  and  _399
REMARK  144  A    between atoms: _398  and  _401
REMARK  145  A    between atoms: _401  and  _402
REMARK  146  A    between atoms: _402  and  _403
REMARK  147  A    between atoms: _403  and  _404
REMARK                            x       y       z     vdW  Elec       q    Type
REMARK                         _______ _______ _______ _____ _____    ______ ____
ROOT
ATOM      1  O   HOH     1      -0.802   3.881  10.326  0.00  0.00    +0.000 OA
ENDROOT
TORSDOF 0
REMARK  Name = ../refined-set-2016/4ruy/4ruy_pocket.pdb
REMARK  147 active torsions:
REMARK  status: ('A' for Active; 'I' for Inactive)
REMARK    1  A    between atoms: _1  and  _3
REMARK    2  A    between atoms: _3  and  _4
REMARK    3  A    between atoms: _3  and  _6
REMARK    4  A    between atoms: _6  and  _7
REMARK    5  A    between atoms: _17  and  _19
REMARK    6  A    between atoms: _19  and  _20
REMARK    7  A    between atoms: _19  and  _22
REMARK    8  A    between atoms: _22  and  _23
REMARK    9  A    between atoms: _28  and  _29
REMARK   10  A    between atoms: _31  and  _33
REMARK   11  A    between atoms: _33  and  _34
REMARK   12  A    between atoms: _33  and  _36
REMARK   13  A    between atoms: _36  and  _37
REMARK   14  A    between atoms: _40  and  _41
REMARK   15  A    between atoms: _46  and  _48
REMARK   16  A    between atoms: _48  and  _49
REMARK   17  A    between atoms: _48  and  _51
REMARK   18  A    between atoms: _51  and  _52
REMARK   19  A    between atoms: _57  and  _59
REMARK   20  A    between atoms: _59  and  _60
REMARK   21  A    between atoms: _63  and  _65
REMARK   22  A    between atoms: _65  and  _66
REMARK   23  A    between atoms: _65  and  _68
REMARK   24  A    between atoms: _68  and  _69
REMARK   25  A    between atoms: _74  and  _76
REMARK   26  A    between atoms: _76  and  _77
REMARK   27  A    between atoms: _76  and  _79
REMARK   28  A    between atoms: _79  and  _80
REMARK   29  A    between atoms: _83  and  _85
REMARK   30  A    between atoms: _85  and  _86
REMARK   31  A    between atoms: _85  and  _88
REMARK   32  A    between atoms: _88  and  _89
REMARK   33  A    between atoms: _89  and  _90
REMARK   34  A    between atoms: _95  and  _97
REMARK   35  A    between atoms: _97  and  _98
REMARK   36  A    between atoms: _97  and  _100
REMARK   37  A    between atoms: _100  and  _101
REMARK   38  A    between atoms: _107  and  _109
REMARK   39  A    between atoms: _120  and  _123
REMARK   40  A    between atoms: _123  and  _124
REMARK   41  A    between atoms: _132  and  _133
REMARK   42  A    between atoms: _141  and  _143
REMARK   43  A    between atoms: _143  and  _144
REMARK   44  A    between atoms: _143  and  _146
REMARK   45  A    between atoms: _146  and  _147
REMARK   46  A    between atoms: _147  and  _148
REMARK   47  A    between atoms: _151  and  _153
REMARK   48  A    between atoms: _153  and  _154
REMARK   49  A    between atoms: _153  and  _156
REMARK   50  A    between atoms: _156  and  _157
REMARK   51  A    between atoms: _162  and  _164
REMARK   52  A    between atoms: _164  and  _165
REMARK   53  A    between atoms: _164  and  _167
REMARK   54  A    between atoms: _167  and  _168
REMARK   55  A    between atoms: _168  and  _169
REMARK   56  A    between atoms: _172  and  _174
REMARK   57  A    between atoms: _174  and  _175
REMARK   58  A    between atoms: _174  and  _177
REMARK   59  A    between atoms: _177  and  _178
REMARK   60  A    between atoms: _181  and  _183
REMARK   61  A    between atoms: _183  and  _184
REMARK   62  A    between atoms: _183  and  _186
REMARK   63  A    between atoms: _186  and  _187
REMARK   64  A    between atoms: _188  and  ZN_413
REMARK   65  A    between atoms: _192  and  _194
REMARK   66  A    between atoms: _194  and  _195
REMARK   67  A    between atoms: _194  and  _197
REMARK   68  A    between atoms: _197  and  _198
REMARK   69  A    between atoms: _201  and  _203
REMARK   70  A    between atoms: _203  and  _204
REMARK   71  A    between atoms: _203  and  _206
REMARK   72  A    between atoms: _209  and  _211
REMARK   73  A    between atoms: _211  and  _212
REMARK   74  A    between atoms: _211  and  _214
REMARK   75  A    between atoms: _214  and  _215
REMARK   76  A    between atoms: _220  and  _222
REMARK   77  A    between atoms: _222  and  _223
REMARK   78  A    between atoms: _222  and  _225
REMARK   79  A    between atoms: _225  and  _226
REMARK   80  A    between atoms: _232  and  _234
REMARK   81  A    between atoms: _234  and  _235
REMARK   82  A    between atoms: _237  and  _239
REMARK   83  A    between atoms: _239  and  _240
REMARK   84  A    between atoms: _239  and  _242
REMARK   85  A    between atoms: _245  and  _247
REMARK   86  A    between atoms: _247  and  _248
REMARK   87  A    between atoms: _247  and  _250
REMARK   88  A    between atoms: _250  and  _251
REMARK   89  A    between atoms: _254  and  _256
REMARK   90  A    between atoms: _256  and  _257
REMARK   91  A    between atoms: _260  and  _262
REMARK   92  A    between atoms: _262  and  _263
REMARK   93  A    between atoms: _262  and  _265
REMARK   94  A    between atoms: _268  and  _270
REMARK   95  A    between atoms: _270  and  _271
REMARK   96  A    between atoms: _270  and  _273
REMARK   97  A    between atoms: _273  and  _274
REMARK   98  A    between atoms: _277  and  _279
REMARK   99  A    between atoms: _279  and  _280
REMARK  100  A    between atoms: _282  and  _284
REMARK  101  A    between atoms: _284  and  _285
REMARK  102  A    between atoms: _287  and  _289
REMARK  103  A    between atoms: _289  and  _290
REMARK  104  A    between atoms: _289  and  _292
REMARK  105  A    between atoms: _292  and  _293
REMARK  106  A    between atoms: _295  and  _297
REMARK  107  A    between atoms: _297  and  _298
REMARK  108  A    between atoms: _297  and  _300
REMARK  109  A    between atoms: _300  and  _301
REMARK  110  A    between atoms: _304  and  _306
REMARK  111  A    between atoms: _306  and  _307
REMARK  112  A    between atoms: _306  and  _309
REMARK  113  A    between atoms: _309  and  _310
REMARK  114  A    between atoms: _313  and  _315
REMARK  115  A    between atoms: _315  and  _316
REMARK  116  A    between atoms: _315  and  _318
REMARK  117  A    between atoms: _318  and  _319
REMARK  118  A    between atoms: _323  and  _324
REMARK  119  A    between atoms: _330  and  _331
REMARK  120  A    between atoms: _336  and  _338
REMARK  121  A    between atoms: _338  and  _339
REMARK  122  A    between atoms: _338  and  _341
REMARK  123  A    between atoms: _341  and  _342
REMARK  124  A    between atoms: _345  and  _347
REMARK  125  A    between atoms: _347  and  _348
REMARK  126  A    between atoms: _347  and  _350
REMARK  127  A    between atoms: _350  and  _351
REMARK  128  A    between atoms: _354  and  _356
REMARK  129  A    between atoms: _356  and  _357
REMARK  130  A    between atoms: _356  and  _359
REMARK  131  A    between atoms: _361  and  _363
REMARK  132  A    between atoms: _363  and  _364
REMARK  133  A    between atoms: _363  and  _366
REMARK  134  A    between atoms: _369  and  _371
REMARK  135  A    between atoms: _371  and  _372
REMARK  136  A    between atoms: _371  and  _374
REMARK  137  A    between atoms: _374  and  _375
REMARK  138  A    between atoms: _385  and  _387
REMARK  139  A    between atoms: _387  and  _388
REMARK  140  A    between atoms: _387  and  _390
REMARK  141  A    between atoms: _390  and  _391
REMARK  142  A    between atoms: _396  and  _398
REMARK  143  A    between atoms: _398  and  _399
REMARK  144  A    between atoms: _398  and  _401
REMARK  145  A    between atoms: _401  and  _402
REMARK  146  A    between atoms: _402  and  _403
REMARK  147  A    between atoms: _403  and  _404
REMARK                            x       y       z     vdW  Elec       q    Type
REMARK                         _______ _______ _______ _____ _____    ______ ____
ROOT
ATOM      1  O   HOH     1       1.071   4.910  12.075  0.00  0.00    +0.000 OA
ENDROOT
TORSDOF 0
REMARK  Name = ../refined-set-2016/4ruy/4ruy_pocket.pdb
REMARK  147 active torsions:
REMARK  status: ('A' for Active; 'I' for Inactive)
REMARK    1  A    between atoms: _1  and  _3
REMARK    2  A    between atoms: _3  and  _4
REMARK    3  A    between atoms: _3  and  _6
REMARK    4  A    between atoms: _6  and  _7
REMARK    5  A    between atoms: _17  and  _19
REMARK    6  A    between atoms: _19  and  _20
REMARK    7  A    between atoms: _19  and  _22
REMARK    8  A    between atoms: _22  and  _23
REMARK    9  A    between atoms: _28  and  _29
REMARK   10  A    between atoms: _31  and  _33
REMARK   11  A    between atoms: _33  and  _34
REMARK   12  A    between atoms: _33  and  _36
REMARK   13  A    between atoms: _36  and  _37
REMARK   14  A    between atoms: _40  and  _41
REMARK   15  A    between atoms: _46  and  _48
REMARK   16  A    between atoms: _48  and  _49
REMARK   17  A    between atoms: _48  and  _51
REMARK   18  A    between atoms: _51  and  _52
REMARK   19  A    between atoms: _57  and  _59
REMARK   20  A    between atoms: _59  and  _60
REMARK   21  A    between atoms: _63  and  _65
REMARK   22  A    between atoms: _65  and  _66
REMARK   23  A    between atoms: _65  and  _68
REMARK   24  A    between atoms: _68  and  _69
REMARK   25  A    between atoms: _74  and  _76
REMARK   26  A    between atoms: _76  and  _77
REMARK   27  A    between atoms: _76  and  _79
REMARK   28  A    between atoms: _79  and  _80
REMARK   29  A    between atoms: _83  and  _85
REMARK   30  A    between atoms: _85  and  _86
REMARK   31  A    between atoms: _85  and  _88
REMARK   32  A    between atoms: _88  and  _89
REMARK   33  A    between atoms: _89  and  _90
REMARK   34  A    between atoms: _95  and  _97
REMARK   35  A    between atoms: _97  and  _98
REMARK   36  A    between atoms: _97  and  _100
REMARK   37  A    between atoms: _100  and  _101
REMARK   38  A    between atoms: _107  and  _109
REMARK   39  A    between atoms: _120  and  _123
REMARK   40  A    between atoms: _123  and  _124
REMARK   41  A    between atoms: _132  and  _133
REMARK   42  A    between atoms: _141  and  _143
REMARK   43  A    between atoms: _143  and  _144
REMARK   44  A    between atoms: _143  and  _146
REMARK   45  A    between atoms: _146  and  _147
REMARK   46  A    between atoms: _147  and  _148
REMARK   47  A    between atoms: _151  and  _153
REMARK   48  A    between atoms: _153  and  _154
REMARK   49  A    between atoms: _153  and  _156
REMARK   50  A    between atoms: _156  and  _157
REMARK   51  A    between atoms: _162  and  _164
REMARK   52  A    between atoms: _164  and  _165
REMARK   53  A    between atoms: _164  and  _167
REMARK   54  A    between atoms: _167  and  _168
REMARK   55  A    between atoms: _168  and  _169
REMARK   56  A    between atoms: _172  and  _174
REMARK   57  A    between atoms: _174  and  _175
REMARK   58  A    between atoms: _174  and  _177
REMARK   59  A    between atoms: _177  and  _178
REMARK   60  A    between atoms: _181  and  _183
REMARK   61  A    between atoms: _183  and  _184
REMARK   62  A    between atoms: _183  and  _186
REMARK   63  A    between atoms: _186  and  _187
REMARK   64  A    between atoms: _188  and  ZN_413
REMARK   65  A    between atoms: _192  and  _194
REMARK   66  A    between atoms: _194  and  _195
REMARK   67  A    between atoms: _194  and  _197
REMARK   68  A    between atoms: _197  and  _198
REMARK   69  A    between atoms: _201  and  _203
REMARK   70  A    between atoms: _203  and  _204
REMARK   71  A    between atoms: _203  and  _206
REMARK   72  A    between atoms: _209  and  _211
REMARK   73  A    between atoms: _211  and  _212
REMARK   74  A    between atoms: _211  and  _214
REMARK   75  A    between atoms: _214  and  _215
REMARK   76  A    between atoms: _220  and  _222
REMARK   77  A    between atoms: _222  and  _223
REMARK   78  A    between atoms: _222  and  _225
REMARK   79  A    between atoms: _225  and  _226
REMARK   80  A    between atoms: _232  and  _234
REMARK   81  A    between atoms: _234  and  _235
REMARK   82  A    between atoms: _237  and  _239
REMARK   83  A    between atoms: _239  and  _240
REMARK   84  A    between atoms: _239  and  _242
REMARK   85  A    between atoms: _245  and  _247
REMARK   86  A    between atoms: _247  and  _248
REMARK   87  A    between atoms: _247  and  _250
REMARK   88  A    between atoms: _250  and  _251
REMARK   89  A    between atoms: _254  and  _256
REMARK   90  A    between atoms: _256  and  _257
REMARK   91  A    between atoms: _260  and  _262
REMARK   92  A    between atoms: _262  and  _263
REMARK   93  A    between atoms: _262  and  _265
REMARK   94  A    between atoms: _268  and  _270
REMARK   95  A    between atoms: _270  and  _271
REMARK   96  A    between atoms: _270  and  _273
REMARK   97  A    between atoms: _273  and  _274
REMARK   98  A    between atoms: _277  and  _279
REMARK   99  A    between atoms: _279  and  _280
REMARK  100  A    between atoms: _282  and  _284
REMARK  101  A    between atoms: _284  and  _285
REMARK  102  A    between atoms: _287  and  _289
REMARK  103  A    between atoms: _289  and  _290
REMARK  104  A    between atoms: _289  and  _292
REMARK  105  A    between atoms: _292  and  _293
REMARK  106  A    between atoms: _295  and  _297
REMARK  107  A    between atoms: _297  and  _298
REMARK  108  A    between atoms: _297  and  _300
REMARK  109  A    between atoms: _300  and  _301
REMARK  110  A    between atoms: _304  and  _306
REMARK  111  A    between atoms: _306  and  _307
REMARK  112  A    between atoms: _306  and  _309
REMARK  113  A    between atoms: _309  and  _310
REMARK  114  A    between atoms: _313  and  _315
REMARK  115  A    between atoms: _315  and  _316
REMARK  116  A    between atoms: _315  and  _318
REMARK  117  A    between atoms: _318  and  _319
REMARK  118  A    between atoms: _323  and  _324
REMARK  119  A    between atoms: _330  and  _331
REMARK  120  A    between atoms: _336  and  _338
REMARK  121  A    between atoms: _338  and  _339
REMARK  122  A    between atoms: _338  and  _341
REMARK  123  A    between atoms: _341  and  _342
REMARK  124  A    between atoms: _345  and  _347
REMARK  125  A    between atoms: _347  and  _348
REMARK  126  A    between atoms: _347  and  _350
REMARK  127  A    between atoms: _350  and  _351
REMARK  128  A    between atoms: _354  and  _356
REMARK  129  A    between atoms: _356  and  _357
REMARK  130  A    between atoms: _356  and  _359
REMARK  131  A    between atoms: _361  and  _363
REMARK  132  A    between atoms: _363  and  _364
REMARK  133  A    between atoms: _363  and  _366
REMARK  134  A    between atoms: _369  and  _371
REMARK  135  A    between atoms: _371  and  _372
REMARK  136  A    between atoms: _371  and  _374
REMARK  137  A    between atoms: _374  and  _375
REMARK  138  A    between atoms: _385  and  _387
REMARK  139  A    between atoms: _387  and  _388
REMARK  140  A    between atoms: _387  and  _390
REMARK  141  A    between atoms: _390  and  _391
REMARK  142  A    between atoms: _396  and  _398
REMARK  143  A    between atoms: _398  and  _399
REMARK  144  A    between atoms: _398  and  _401
REMARK  145  A    between atoms: _401  and  _402
REMARK  146  A    between atoms: _402  and  _403
REMARK  147  A    between atoms: _403  and  _404
REMARK                            x       y       z     vdW  Elec       q    Type
REMARK                         _______ _______ _______ _____ _____    ______ ____
ROOT
ATOM      1  O   HOH     1      -0.565  13.838  15.949  0.00  0.00    +0.000 OA
ENDROOT
TORSDOF 0
REMARK  Name = ../refined-set-2016/4ruy/4ruy_pocket.pdb
REMARK  147 active torsions:
REMARK  status: ('A' for Active; 'I' for Inactive)
REMARK    1  A    between atoms: _1  and  _3
REMARK    2  A    between atoms: _3  and  _4
REMARK    3  A    between atoms: _3  and  _6
REMARK    4  A    between atoms: _6  and  _7
REMARK    5  A    between atoms: _17  and  _19
REMARK    6  A    between atoms: _19  and  _20
REMARK    7  A    between atoms: _19  and  _22
REMARK    8  A    between atoms: _22  and  _23
REMARK    9  A    between atoms: _28  and  _29
REMARK   10  A    between atoms: _31  and  _33
REMARK   11  A    between atoms: _33  and  _34
REMARK   12  A    between atoms: _33  and  _36
REMARK   13  A    between atoms: _36  and  _37
REMARK   14  A    between atoms: _40  and  _41
REMARK   15  A    between atoms: _46  and  _48
REMARK   16  A    between atoms: _48  and  _49
REMARK   17  A    between atoms: _48  and  _51
REMARK   18  A    between atoms: _51  and  _52
REMARK   19  A    between atoms: _57  and  _59
REMARK   20  A    between atoms: _59  and  _60
REMARK   21  A    between atoms: _63  and  _65
REMARK   22  A    between atoms: _65  and  _66
REMARK   23  A    between atoms: _65  and  _68
REMARK   24  A    between atoms: _68  and  _69
REMARK   25  A    between atoms: _74  and  _76
REMARK   26  A    between atoms: _76  and  _77
REMARK   27  A    between atoms: _76  and  _79
REMARK   28  A    between atoms: _79  and  _80
REMARK   29  A    between atoms: _83  and  _85
REMARK   30  A    between atoms: _85  and  _86
REMARK   31  A    between atoms: _85  and  _88
REMARK   32  A    between atoms: _88  and  _89
REMARK   33  A    between atoms: _89  and  _90
REMARK   34  A    between atoms: _95  and  _97
REMARK   35  A    between atoms: _97  and  _98
REMARK   36  A    between atoms: _97  and  _100
REMARK   37  A    between atoms: _100  and  _101
REMARK   38  A    between atoms: _107  and  _109
REMARK   39  A    between atoms: _120  and  _123
REMARK   40  A    between atoms: _123  and  _124
REMARK   41  A    between atoms: _132  and  _133
REMARK   42  A    between atoms: _141  and  _143
REMARK   43  A    between atoms: _143  and  _144
REMARK   44  A    between atoms: _143  and  _146
REMARK   45  A    between atoms: _146  and  _147
REMARK   46  A    between atoms: _147  and  _148
REMARK   47  A    between atoms: _151  and  _153
REMARK   48  A    between atoms: _153  and  _154
REMARK   49  A    between atoms: _153  and  _156
REMARK   50  A    between atoms: _156  and  _157
REMARK   51  A    between atoms: _162  and  _164
REMARK   52  A    between atoms: _164  and  _165
REMARK   53  A    between atoms: _164  and  _167
REMARK   54  A    between atoms: _167  and  _168
REMARK   55  A    between atoms: _168  and  _169
REMARK   56  A    between atoms: _172  and  _174
REMARK   57  A    between atoms: _174  and  _175
REMARK   58  A    between atoms: _174  and  _177
REMARK   59  A    between atoms: _177  and  _178
REMARK   60  A    between atoms: _181  and  _183
REMARK   61  A    between atoms: _183  and  _184
REMARK   62  A    between atoms: _183  and  _186
REMARK   63  A    between atoms: _186  and  _187
REMARK   64  A    between atoms: _188  and  ZN_413
REMARK   65  A    between atoms: _192  and  _194
REMARK   66  A    between atoms: _194  and  _195
REMARK   67  A    between atoms: _194  and  _197
REMARK   68  A    between atoms: _197  and  _198
REMARK   69  A    between atoms: _201  and  _203
REMARK   70  A    between atoms: _203  and  _204
REMARK   71  A    between atoms: _203  and  _206
REMARK   72  A    between atoms: _209  and  _211
REMARK   73  A    between atoms: _211  and  _212
REMARK   74  A    between atoms: _211  and  _214
REMARK   75  A    between atoms: _214  and  _215
REMARK   76  A    between atoms: _220  and  _222
REMARK   77  A    between atoms: _222  and  _223
REMARK   78  A    between atoms: _222  and  _225
REMARK   79  A    between atoms: _225  and  _226
REMARK   80  A    between atoms: _232  and  _234
REMARK   81  A    between atoms: _234  and  _235
REMARK   82  A    between atoms: _237  and  _239
REMARK   83  A    between atoms: _239  and  _240
REMARK   84  A    between atoms: _239  and  _242
REMARK   85  A    between atoms: _245  and  _247
REMARK   86  A    between atoms: _247  and  _248
REMARK   87  A    between atoms: _247  and  _250
REMARK   88  A    between atoms: _250  and  _251
REMARK   89  A    between atoms: _254  and  _256
REMARK   90  A    between atoms: _256  and  _257
REMARK   91  A    between atoms: _260  and  _262
REMARK   92  A    between atoms: _262  and  _263
REMARK   93  A    between atoms: _262  and  _265
REMARK   94  A    between atoms: _268  and  _270
REMARK   95  A    between atoms: _270  and  _271
REMARK   96  A    between atoms: _270  and  _273
REMARK   97  A    between atoms: _273  and  _274
REMARK   98  A    between atoms: _277  and  _279
REMARK   99  A    between atoms: _279  and  _280
REMARK  100  A    between atoms: _282  and  _284
REMARK  101  A    between atoms: _284  and  _285
REMARK  102  A    between atoms: _287  and  _289
REMARK  103  A    between atoms: _289  and  _290
REMARK  104  A    between atoms: _289  and  _292
REMARK  105  A    between atoms: _292  and  _293
REMARK  106  A    between atoms: _295  and  _297
REMARK  107  A    between atoms: _297  and  _298
REMARK  108  A    between atoms: _297  and  _300
REMARK  109  A    between atoms: _300  and  _301
REMARK  110  A    between atoms: _304  and  _306
REMARK  111  A    between atoms: _306  and  _307
REMARK  112  A    between atoms: _306  and  _309
REMARK  113  A    between atoms: _309  and  _310
REMARK  114  A    between atoms: _313  and  _315
REMARK  115  A    between atoms: _315  and  _316
REMARK  116  A    between atoms: _315  and  _318
REMARK  117  A    between atoms: _318  and  _319
REMARK  118  A    between atoms: _323  and  _324
REMARK  119  A    between atoms: _330  and  _331
REMARK  120  A    between atoms: _336  and  _338
REMARK  121  A    between atoms: _338  and  _339
REMARK  122  A    between atoms: _338  and  _341
REMARK  123  A    between atoms: _341  and  _342
REMARK  124  A    between atoms: _345  and  _347
REMARK  125  A    between atoms: _347  and  _348
REMARK  126  A    between atoms: _347  and  _350
REMARK  127  A    between atoms: _350  and  _351
REMARK  128  A    between atoms: _354  and  _356
REMARK  129  A    between atoms: _356  and  _357
REMARK  130  A    between atoms: _356  and  _359
REMARK  131  A    between atoms: _361  and  _363
REMARK  132  A    between atoms: _363  and  _364
REMARK  133  A    between atoms: _363  and  _366
REMARK  134  A    between atoms: _369  and  _371
REMARK  135  A    between atoms: _371  and  _372
REMARK  136  A    between atoms: _371  and  _374
REMARK  137  A    between atoms: _374  and  _375
REMARK  138  A    between atoms: _385  and  _387
REMARK  139  A    between atoms: _387  and  _388
REMARK  140  A    between atoms: _387  and  _390
REMARK  141  A    between atoms: _390  and  _391
REMARK  142  A    between atoms: _396  and  _398
REMARK  143  A    between atoms: _398  and  _399
REMARK  144  A    between atoms: _398  and  _401
REMARK  145  A    between atoms: _401  and  _402
REMARK  146  A    between atoms: _402  and  _403
REMARK  147  A    between atoms: _403  and  _404
REMARK                            x       y       z     vdW  Elec       q    Type
REMARK                         _______ _______ _______ _____ _____    ______ ____
ROOT
ATOM      1  O   HOH     1      -8.137   7.809   8.638  0.00  0.00    +0.000 OA
ENDROOT
TORSDOF 0
REMARK  Name = ../refined-set-2016/4ruy/4ruy_pocket.pdb
REMARK  147 active torsions:
REMARK  status: ('A' for Active; 'I' for Inactive)
REMARK    1  A    between atoms: _1  and  _3
REMARK    2  A    between atoms: _3  and  _4
REMARK    3  A    between atoms: _3  and  _6
REMARK    4  A    between atoms: _6  and  _7
REMARK    5  A    between atoms: _17  and  _19
REMARK    6  A    between atoms: _19  and  _20
REMARK    7  A    between atoms: _19  and  _22
REMARK    8  A    between atoms: _22  and  _23
REMARK    9  A    between atoms: _28  and  _29
REMARK   10  A    between atoms: _31  and  _33
REMARK   11  A    between atoms: _33  and  _34
REMARK   12  A    between atoms: _33  and  _36
REMARK   13  A    between atoms: _36  and  _37
REMARK   14  A    between atoms: _40  and  _41
REMARK   15  A    between atoms: _46  and  _48
REMARK   16  A    between atoms: _48  and  _49
REMARK   17  A    between atoms: _48  and  _51
REMARK   18  A    between atoms: _51  and  _52
REMARK   19  A    between atoms: _57  and  _59
REMARK   20  A    between atoms: _59  and  _60
REMARK   21  A    between atoms: _63  and  _65
REMARK   22  A    between atoms: _65  and  _66
REMARK   23  A    between atoms: _65  and  _68
REMARK   24  A    between atoms: _68  and  _69
REMARK   25  A    between atoms: _74  and  _76
REMARK   26  A    between atoms: _76  and  _77
REMARK   27  A    between atoms: _76  and  _79
REMARK   28  A    between atoms: _79  and  _80
REMARK   29  A    between atoms: _83  and  _85
REMARK   30  A    between atoms: _85  and  _86
REMARK   31  A    between atoms: _85  and  _88
REMARK   32  A    between atoms: _88  and  _89
REMARK   33  A    between atoms: _89  and  _90
REMARK   34  A    between atoms: _95  and  _97
REMARK   35  A    between atoms: _97  and  _98
REMARK   36  A    between atoms: _97  and  _100
REMARK   37  A    between atoms: _100  and  _101
REMARK   38  A    between atoms: _107  and  _109
REMARK   39  A    between atoms: _120  and  _123
REMARK   40  A    between atoms: _123  and  _124
REMARK   41  A    between atoms: _132  and  _133
REMARK   42  A    between atoms: _141  and  _143
REMARK   43  A    between atoms: _143  and  _144
REMARK   44  A    between atoms: _143  and  _146
REMARK   45  A    between atoms: _146  and  _147
REMARK   46  A    between atoms: _147  and  _148
REMARK   47  A    between atoms: _151  and  _153
REMARK   48  A    between atoms: _153  and  _154
REMARK   49  A    between atoms: _153  and  _156
REMARK   50  A    between atoms: _156  and  _157
REMARK   51  A    between atoms: _162  and  _164
REMARK   52  A    between atoms: _164  and  _165
REMARK   53  A    between atoms: _164  and  _167
REMARK   54  A    between atoms: _167  and  _168
REMARK   55  A    between atoms: _168  and  _169
REMARK   56  A    between atoms: _172  and  _174
REMARK   57  A    between atoms: _174  and  _175
REMARK   58  A    between atoms: _174  and  _177
REMARK   59  A    between atoms: _177  and  _178
REMARK   60  A    between atoms: _181  and  _183
REMARK   61  A    between atoms: _183  and  _184
REMARK   62  A    between atoms: _183  and  _186
REMARK   63  A    between atoms: _186  and  _187
REMARK   64  A    between atoms: _188  and  ZN_413
REMARK   65  A    between atoms: _192  and  _194
REMARK   66  A    between atoms: _194  and  _195
REMARK   67  A    between atoms: _194  and  _197
REMARK   68  A    between atoms: _197  and  _198
REMARK   69  A    between atoms: _201  and  _203
REMARK   70  A    between atoms: _203  and  _204
REMARK   71  A    between atoms: _203  and  _206
REMARK   72  A    between atoms: _209  and  _211
REMARK   73  A    between atoms: _211  and  _212
REMARK   74  A    between atoms: _211  and  _214
REMARK   75  A    between atoms: _214  and  _215
REMARK   76  A    between atoms: _220  and  _222
REMARK   77  A    between atoms: _222  and  _223
REMARK   78  A    between atoms: _222  and  _225
REMARK   79  A    between atoms: _225  and  _226
REMARK   80  A    between atoms: _232  and  _234
REMARK   81  A    between atoms: _234  and  _235
REMARK   82  A    between atoms: _237  and  _239
REMARK   83  A    between atoms: _239  and  _240
REMARK   84  A    between atoms: _239  and  _242
REMARK   85  A    between atoms: _245  and  _247
REMARK   86  A    between atoms: _247  and  _248
REMARK   87  A    between atoms: _247  and  _250
REMARK   88  A    between atoms: _250  and  _251
REMARK   89  A    between atoms: _254  and  _256
REMARK   90  A    between atoms: _256  and  _257
REMARK   91  A    between atoms: _260  and  _262
REMARK   92  A    between atoms: _262  and  _263
REMARK   93  A    between atoms: _262  and  _265
REMARK   94  A    between atoms: _268  and  _270
REMARK   95  A    between atoms: _270  and  _271
REMARK   96  A    between atoms: _270  and  _273
REMARK   97  A    between atoms: _273  and  _274
REMARK   98  A    between atoms: _277  and  _279
REMARK   99  A    between atoms: _279  and  _280
REMARK  100  A    between atoms: _282  and  _284
REMARK  101  A    between atoms: _284  and  _285
REMARK  102  A    between atoms: _287  and  _289
REMARK  103  A    between atoms: _289  and  _290
REMARK  104  A    between atoms: _289  and  _292
REMARK  105  A    between atoms: _292  and  _293
REMARK  106  A    between atoms: _295  and  _297
REMARK  107  A    between atoms: _297  and  _298
REMARK  108  A    between atoms: _297  and  _300
REMARK  109  A    between atoms: _300  and  _301
REMARK  110  A    between atoms: _304  and  _306
REMARK  111  A    between atoms: _306  and  _307
REMARK  112  A    between atoms: _306  and  _309
REMARK  113  A    between atoms: _309  and  _310
REMARK  114  A    between atoms: _313  and  _315
REMARK  115  A    between atoms: _315  and  _316
REMARK  116  A    between atoms: _315  and  _318
REMARK  117  A    between atoms: _318  and  _319
REMARK  118  A    between atoms: _323  and  _324
REMARK  119  A    between atoms: _330  and  _331
REMARK  120  A    between atoms: _336  and  _338
REMARK  121  A    between atoms: _338  and  _339
REMARK  122  A    between atoms: _338  and  _341
REMARK  123  A    between atoms: _341  and  _342
REMARK  124  A    between atoms: _345  and  _347
REMARK  125  A    between atoms: _347  and  _348
REMARK  126  A    between atoms: _347  and  _350
REMARK  127  A    between atoms: _350  and  _351
REMARK  128  A    between atoms: _354  and  _356
REMARK  129  A    between atoms: _356  and  _357
REMARK  130  A    between atoms: _356  and  _359
REMARK  131  A    between atoms: _361  and  _363
REMARK  132  A    between atoms: _363  and  _364
REMARK  133  A    between atoms: _363  and  _366
REMARK  134  A    between atoms: _369  and  _371
REMARK  135  A    between atoms: _371  and  _372
REMARK  136  A    between atoms: _371  and  _374
REMARK  137  A    between atoms: _374  and  _375
REMARK  138  A    between atoms: _385  and  _387
REMARK  139  A    between atoms: _387  and  _388
REMARK  140  A    between atoms: _387  and  _390
REMARK  141  A    between atoms: _390  and  _391
REMARK  142  A    between atoms: _396  and  _398
REMARK  143  A    between atoms: _398  and  _399
REMARK  144  A    between atoms: _398  and  _401
REMARK  145  A    between atoms: _401  and  _402
REMARK  146  A    between atoms: _402  and  _403
REMARK  147  A    between atoms: _403  and  _404
REMARK                            x       y       z     vdW  Elec       q    Type
REMARK                         _______ _______ _______ _____ _____    ______ ____
ROOT
ATOM      1  O   HOH     1       3.385   4.440  10.583  0.00  0.00    +0.000 OA
ENDROOT
TORSDOF 0
REMARK  Name = ../refined-set-2016/4ruy/4ruy_pocket.pdb
REMARK  147 active torsions:
REMARK  status: ('A' for Active; 'I' for Inactive)
REMARK    1  A    between atoms: _1  and  _3
REMARK    2  A    between atoms: _3  and  _4
REMARK    3  A    between atoms: _3  and  _6
REMARK    4  A    between atoms: _6  and  _7
REMARK    5  A    between atoms: _17  and  _19
REMARK    6  A    between atoms: _19  and  _20
REMARK    7  A    between atoms: _19  and  _22
REMARK    8  A    between atoms: _22  and  _23
REMARK    9  A    between atoms: _28  and  _29
REMARK   10  A    between atoms: _31  and  _33
REMARK   11  A    between atoms: _33  and  _34
REMARK   12  A    between atoms: _33  and  _36
REMARK   13  A    between atoms: _36  and  _37
REMARK   14  A    between atoms: _40  and  _41
REMARK   15  A    between atoms: _46  and  _48
REMARK   16  A    between atoms: _48  and  _49
REMARK   17  A    between atoms: _48  and  _51
REMARK   18  A    between atoms: _51  and  _52
REMARK   19  A    between atoms: _57  and  _59
REMARK   20  A    between atoms: _59  and  _60
REMARK   21  A    between atoms: _63  and  _65
REMARK   22  A    between atoms: _65  and  _66
REMARK   23  A    between atoms: _65  and  _68
REMARK   24  A    between atoms: _68  and  _69
REMARK   25  A    between atoms: _74  and  _76
REMARK   26  A    between atoms: _76  and  _77
REMARK   27  A    between atoms: _76  and  _79
REMARK   28  A    between atoms: _79  and  _80
REMARK   29  A    between atoms: _83  and  _85
REMARK   30  A    between atoms: _85  and  _86
REMARK   31  A    between atoms: _85  and  _88
REMARK   32  A    between atoms: _88  and  _89
REMARK   33  A    between atoms: _89  and  _90
REMARK   34  A    between atoms: _95  and  _97
REMARK   35  A    between atoms: _97  and  _98
REMARK   36  A    between atoms: _97  and  _100
REMARK   37  A    between atoms: _100  and  _101
REMARK   38  A    between atoms: _107  and  _109
REMARK   39  A    between atoms: _120  and  _123
REMARK   40  A    between atoms: _123  and  _124
REMARK   41  A    between atoms: _132  and  _133
REMARK   42  A    between atoms: _141  and  _143
REMARK   43  A    between atoms: _143  and  _144
REMARK   44  A    between atoms: _143  and  _146
REMARK   45  A    between atoms: _146  and  _147
REMARK   46  A    between atoms: _147  and  _148
REMARK   47  A    between atoms: _151  and  _153
REMARK   48  A    between atoms: _153  and  _154
REMARK   49  A    between atoms: _153  and  _156
REMARK   50  A    between atoms: _156  and  _157
REMARK   51  A    between atoms: _162  and  _164
REMARK   52  A    between atoms: _164  and  _165
REMARK   53  A    between atoms: _164  and  _167
REMARK   54  A    between atoms: _167  and  _168
REMARK   55  A    between atoms: _168  and  _169
REMARK   56  A    between atoms: _172  and  _174
REMARK   57  A    between atoms: _174  and  _175
REMARK   58  A    between atoms: _174  and  _177
REMARK   59  A    between atoms: _177  and  _178
REMARK   60  A    between atoms: _181  and  _183
REMARK   61  A    between atoms: _183  and  _184
REMARK   62  A    between atoms: _183  and  _186
REMARK   63  A    between atoms: _186  and  _187
REMARK   64  A    between atoms: _188  and  ZN_413
REMARK   65  A    between atoms: _192  and  _194
REMARK   66  A    between atoms: _194  and  _195
REMARK   67  A    between atoms: _194  and  _197
REMARK   68  A    between atoms: _197  and  _198
REMARK   69  A    between atoms: _201  and  _203
REMARK   70  A    between atoms: _203  and  _204
REMARK   71  A    between atoms: _203  and  _206
REMARK   72  A    between atoms: _209  and  _211
REMARK   73  A    between atoms: _211  and  _212
REMARK   74  A    between atoms: _211  and  _214
REMARK   75  A    between atoms: _214  and  _215
REMARK   76  A    between atoms: _220  and  _222
REMARK   77  A    between atoms: _222  and  _223
REMARK   78  A    between atoms: _222  and  _225
REMARK   79  A    between atoms: _225  and  _226
REMARK   80  A    between atoms: _232  and  _234
REMARK   81  A    between atoms: _234  and  _235
REMARK   82  A    between atoms: _237  and  _239
REMARK   83  A    between atoms: _239  and  _240
REMARK   84  A    between atoms: _239  and  _242
REMARK   85  A    between atoms: _245  and  _247
REMARK   86  A    between atoms: _247  and  _248
REMARK   87  A    between atoms: _247  and  _250
REMARK   88  A    between atoms: _250  and  _251
REMARK   89  A    between atoms: _254  and  _256
REMARK   90  A    between atoms: _256  and  _257
REMARK   91  A    between atoms: _260  and  _262
REMARK   92  A    between atoms: _262  and  _263
REMARK   93  A    between atoms: _262  and  _265
REMARK   94  A    between atoms: _268  and  _270
REMARK   95  A    between atoms: _270  and  _271
REMARK   96  A    between atoms: _270  and  _273
REMARK   97  A    between atoms: _273  and  _274
REMARK   98  A    between atoms: _277  and  _279
REMARK   99  A    between atoms: _279  and  _280
REMARK  100  A    between atoms: _282  and  _284
REMARK  101  A    between atoms: _284  and  _285
REMARK  102  A    between atoms: _287  and  _289
REMARK  103  A    between atoms: _289  and  _290
REMARK  104  A    between atoms: _289  and  _292
REMARK  105  A    between atoms: _292  and  _293
REMARK  106  A    between atoms: _295  and  _297
REMARK  107  A    between atoms: _297  and  _298
REMARK  108  A    between atoms: _297  and  _300
REMARK  109  A    between atoms: _300  and  _301
REMARK  110  A    between atoms: _304  and  _306
REMARK  111  A    between atoms: _306  and  _307
REMARK  112  A    between atoms: _306  and  _309
REMARK  113  A    between atoms: _309  and  _310
REMARK  114  A    between atoms: _313  and  _315
REMARK  115  A    between atoms: _315  and  _316
REMARK  116  A    between atoms: _315  and  _318
REMARK  117  A    between atoms: _318  and  _319
REMARK  118  A    between atoms: _323  and  _324
REMARK  119  A    between atoms: _330  and  _331
REMARK  120  A    between atoms: _336  and  _338
REMARK  121  A    between atoms: _338  and  _339
REMARK  122  A    between atoms: _338  and  _341
REMARK  123  A    between atoms: _341  and  _342
REMARK  124  A    between atoms: _345  and  _347
REMARK  125  A    between atoms: _347  and  _348
REMARK  126  A    between atoms: _347  and  _350
REMARK  127  A    between atoms: _350  and  _351
REMARK  128  A    between atoms: _354  and  _356
REMARK  129  A    between atoms: _356  and  _357
REMARK  130  A    between atoms: _356  and  _359
REMARK  131  A    between atoms: _361  and  _363
REMARK  132  A    between atoms: _363  and  _364
REMARK  133  A    between atoms: _363  and  _366
REMARK  134  A    between atoms: _369  and  _371
REMARK  135  A    between atoms: _371  and  _372
REMARK  136  A    between atoms: _371  and  _374
REMARK  137  A    between atoms: _374  and  _375
REMARK  138  A    between atoms: _385  and  _387
REMARK  139  A    between atoms: _387  and  _388
REMARK  140  A    between atoms: _387  and  _390
REMARK  141  A    between atoms: _390  and  _391
REMARK  142  A    between atoms: _396  and  _398
REMARK  143  A    between atoms: _398  and  _399
REMARK  144  A    between atoms: _398  and  _401
REMARK  145  A    between atoms: _401  and  _402
REMARK  146  A    between atoms: _402  and  _403
REMARK  147  A    between atoms: _403  and  _404
REMARK                            x       y       z     vdW  Elec       q    Type
REMARK                         _______ _______ _______ _____ _____    ______ ____
ROOT
ATOM      1  O   HOH     1      -3.332   5.109   9.754  0.00  0.00    +0.000 OA
ENDROOT
TORSDOF 0
