REMARK  Name = ../refined-set-2016/4q7s/4q7s_pocket.pdb
REMARK  135 active torsions:
REMARK  status: ('A' for Active; 'I' for Inactive)
REMARK    1  A    between atoms: _1  and  _3
REMARK    2  A    between atoms: _3  and  _4
REMARK    3  A    between atoms: _3  and  _6
REMARK    4  A    between atoms: _6  and  _7
REMARK    5  A    between atoms: _17  and  _19
REMARK    6  A    between atoms: _19  and  _20
REMARK    7  A    between atoms: _19  and  _22
REMARK    8  A    between atoms: _22  and  _23
REMARK    9  A    between atoms: _28  and  _29
REMARK   10  A    between atoms: _31  and  _33
REMARK   11  A    between atoms: _33  and  _34
REMARK   12  A    between atoms: _33  and  _36
REMARK   13  A    between atoms: _36  and  _37
REMARK   14  A    between atoms: _47  and  _49
REMARK   15  A    between atoms: _49  and  _50
REMARK   16  A    between atoms: _49  and  _52
REMARK   17  A    between atoms: _52  and  _53
REMARK   18  A    between atoms: _55  and  _57
REMARK   19  A    between atoms: _57  and  _58
REMARK   20  A    between atoms: _57  and  _60
REMARK   21  A    between atoms: _60  and  _61
REMARK   22  A    between atoms: _66  and  _68
REMARK   23  A    between atoms: _68  and  _69
REMARK   24  A    between atoms: _68  and  _71
REMARK   25  A    between atoms: _71  and  _72
REMARK   26  A    between atoms: _77  and  _79
REMARK   27  A    between atoms: _79  and  _80
REMARK   28  A    between atoms: _83  and  _85
REMARK   29  A    between atoms: _85  and  _86
REMARK   30  A    between atoms: _85  and  _88
REMARK   31  A    between atoms: _88  and  _89
REMARK   32  A    between atoms: _94  and  _96
REMARK   33  A    between atoms: _96  and  _97
REMARK   34  A    between atoms: _96  and  _99
REMARK   35  A    between atoms: _99  and  _100
REMARK   36  A    between atoms: _103  and  _105
REMARK   37  A    between atoms: _105  and  _106
REMARK   38  A    between atoms: _105  and  _108
REMARK   39  A    between atoms: _108  and  _109
REMARK   40  A    between atoms: _109  and  _110
REMARK   41  A    between atoms: _115  and  _117
REMARK   42  A    between atoms: _128  and  _131
REMARK   43  A    between atoms: _131  and  _132
REMARK   44  A    between atoms: _140  and  _141
REMARK   45  A    between atoms: _149  and  _151
REMARK   46  A    between atoms: _151  and  _152
REMARK   47  A    between atoms: _151  and  _154
REMARK   48  A    between atoms: _154  and  _155
REMARK   49  A    between atoms: _155  and  _156
REMARK   50  A    between atoms: _159  and  _161
REMARK   51  A    between atoms: _161  and  _162
REMARK   52  A    between atoms: _161  and  _164
REMARK   53  A    between atoms: _164  and  _165
REMARK   54  A    between atoms: _170  and  _172
REMARK   55  A    between atoms: _172  and  _173
REMARK   56  A    between atoms: _172  and  _175
REMARK   57  A    between atoms: _175  and  _176
REMARK   58  A    between atoms: _176  and  _177
REMARK   59  A    between atoms: _180  and  _182
REMARK   60  A    between atoms: _182  and  _183
REMARK   61  A    between atoms: _182  and  _185
REMARK   62  A    between atoms: _185  and  _186
REMARK   63  A    between atoms: _189  and  _191
REMARK   64  A    between atoms: _191  and  _192
REMARK   65  A    between atoms: _191  and  _194
REMARK   66  A    between atoms: _194  and  _195
REMARK   67  A    between atoms: _196  and  ZN_384
REMARK   68  A    between atoms: _200  and  _202
REMARK   69  A    between atoms: _202  and  _203
REMARK   70  A    between atoms: _202  and  _205
REMARK   71  A    between atoms: _205  and  _206
REMARK   72  A    between atoms: _209  and  _211
REMARK   73  A    between atoms: _211  and  _212
REMARK   74  A    between atoms: _211  and  _214
REMARK   75  A    between atoms: _217  and  _219
REMARK   76  A    between atoms: _219  and  _220
REMARK   77  A    between atoms: _219  and  _222
REMARK   78  A    between atoms: _222  and  _223
REMARK   79  A    between atoms: _228  and  _230
REMARK   80  A    between atoms: _230  and  _231
REMARK   81  A    between atoms: _230  and  _233
REMARK   82  A    between atoms: _233  and  _234
REMARK   83  A    between atoms: _240  and  _242
REMARK   84  A    between atoms: _242  and  _243
REMARK   85  A    between atoms: _242  and  _245
REMARK   86  A    between atoms: _248  and  _250
REMARK   87  A    between atoms: _250  and  _251
REMARK   88  A    between atoms: _250  and  _253
REMARK   89  A    between atoms: _253  and  _254
REMARK   90  A    between atoms: _257  and  _259
REMARK   91  A    between atoms: _259  and  _260
REMARK   92  A    between atoms: _259  and  _262
REMARK   93  A    between atoms: _265  and  _267
REMARK   94  A    between atoms: _267  and  _268
REMARK   95  A    between atoms: _267  and  _270
REMARK   96  A    between atoms: _270  and  _271
REMARK   97  A    between atoms: _273  and  _275
REMARK   98  A    between atoms: _275  and  _276
REMARK   99  A    between atoms: _275  and  _278
REMARK  100  A    between atoms: _278  and  _279
REMARK  101  A    between atoms: _282  and  _284
REMARK  102  A    between atoms: _284  and  _285
REMARK  103  A    between atoms: _284  and  _287
REMARK  104  A    between atoms: _287  and  _288
REMARK  105  A    between atoms: _291  and  _293
REMARK  106  A    between atoms: _293  and  _294
REMARK  107  A    between atoms: _293  and  _296
REMARK  108  A    between atoms: _296  and  _297
REMARK  109  A    between atoms: _301  and  _302
REMARK  110  A    between atoms: _308  and  _309
REMARK  111  A    between atoms: _314  and  _316
REMARK  112  A    between atoms: _316  and  _317
REMARK  113  A    between atoms: _316  and  _319
REMARK  114  A    between atoms: _319  and  _320
REMARK  115  A    between atoms: _323  and  _325
REMARK  116  A    between atoms: _325  and  _326
REMARK  117  A    between atoms: _325  and  _328
REMARK  118  A    between atoms: _328  and  _329
REMARK  119  A    between atoms: _332  and  _334
REMARK  120  A    between atoms: _334  and  _335
REMARK  121  A    between atoms: _334  and  _337
REMARK  122  A    between atoms: _340  and  _342
REMARK  123  A    between atoms: _342  and  _343
REMARK  124  A    between atoms: _342  and  _345
REMARK  125  A    between atoms: _345  and  _346
REMARK  126  A    between atoms: _356  and  _358
REMARK  127  A    between atoms: _358  and  _359
REMARK  128  A    between atoms: _358  and  _361
REMARK  129  A    between atoms: _361  and  _362
REMARK  130  A    between atoms: _367  and  _369
REMARK  131  A    between atoms: _369  and  _370
REMARK  132  A    between atoms: _369  and  _372
REMARK  133  A    between atoms: _372  and  _373
REMARK  134  A    between atoms: _373  and  _374
REMARK  135  A    between atoms: _374  and  _375
REMARK                            x       y       z     vdW  Elec       q    Type
REMARK                         _______ _______ _______ _____ _____    ______ ____
ROOT
ATOM      1  CG  TRP A   1      26.732  -0.077  12.110  0.00  0.00    -0.002 A 
ATOM      2  CD2 TRP A   1      25.418  -0.606  12.024  0.00  0.00    +0.013 A 
ATOM      3  CE3 TRP A   1      24.877  -1.878  12.270  0.00  0.00    +0.001 A 
ATOM      4  CZ3 TRP A   1      23.501  -2.069  12.114  0.00  0.00    +0.000 A 
ATOM      5  CH2 TRP A   1      22.666  -1.001  11.715  0.00  0.00    +0.001 A 
ATOM      6  CZ2 TRP A   1      23.187   0.244  11.446  0.00  0.00    +0.017 A 
ATOM      7  CE2 TRP A   1      24.560   0.435  11.612  0.00  0.00    +0.056 A 
ATOM      8  NE1 TRP A   1      25.322   1.568  11.429  0.00  0.00    -0.352 N 
ATOM      9  HE1 TRP A   1      24.969   2.493  11.110  0.00  0.00    +0.166 HD
ATOM     10  CD1 TRP A   1      26.639   1.266  11.742  0.00  0.00    +0.068 A 
ENDROOT
BRANCH   1  11
ATOM     11  CB  TRP A   1      27.969  -0.865  12.503  0.00  0.00    +0.053 C 
BRANCH  11  12
ATOM     12  CA  TRP A   1      28.668  -1.573  11.327  0.00  0.00    +0.137 C 
BRANCH  12  13
ATOM     13  N   TRP A   1      29.409  -0.590  10.490  0.00  0.00    -0.239 NA
ATOM     14  H   TRP A   1      29.232   0.427  10.616  0.00  0.00    +0.142 HD
ENDBRANCH  12  13
BRANCH  12  15
ATOM     15  C   TRP A   1      27.692  -2.444  10.535  0.00  0.00    +0.224 C 
ATOM     16  O   TRP A   1      27.083  -1.986   9.552  0.00  0.00    -0.287 OA
ENDBRANCH  12  15
ENDBRANCH  11  12
ENDBRANCH   1  11
TORSDOF 4
REMARK  Name = ../refined-set-2016/4q7s/4q7s_pocket.pdb
REMARK  135 active torsions:
REMARK  status: ('A' for Active; 'I' for Inactive)
REMARK    1  A    between atoms: _1  and  _3
REMARK    2  A    between atoms: _3  and  _4
REMARK    3  A    between atoms: _3  and  _6
REMARK    4  A    between atoms: _6  and  _7
REMARK    5  A    between atoms: _17  and  _19
REMARK    6  A    between atoms: _19  and  _20
REMARK    7  A    between atoms: _19  and  _22
REMARK    8  A    between atoms: _22  and  _23
REMARK    9  A    between atoms: _28  and  _29
REMARK   10  A    between atoms: _31  and  _33
REMARK   11  A    between atoms: _33  and  _34
REMARK   12  A    between atoms: _33  and  _36
REMARK   13  A    between atoms: _36  and  _37
REMARK   14  A    between atoms: _47  and  _49
REMARK   15  A    between atoms: _49  and  _50
REMARK   16  A    between atoms: _49  and  _52
REMARK   17  A    between atoms: _52  and  _53
REMARK   18  A    between atoms: _55  and  _57
REMARK   19  A    between atoms: _57  and  _58
REMARK   20  A    between atoms: _57  and  _60
REMARK   21  A    between atoms: _60  and  _61
REMARK   22  A    between atoms: _66  and  _68
REMARK   23  A    between atoms: _68  and  _69
REMARK   24  A    between atoms: _68  and  _71
REMARK   25  A    between atoms: _71  and  _72
REMARK   26  A    between atoms: _77  and  _79
REMARK   27  A    between atoms: _79  and  _80
REMARK   28  A    between atoms: _83  and  _85
REMARK   29  A    between atoms: _85  and  _86
REMARK   30  A    between atoms: _85  and  _88
REMARK   31  A    between atoms: _88  and  _89
REMARK   32  A    between atoms: _94  and  _96
REMARK   33  A    between atoms: _96  and  _97
REMARK   34  A    between atoms: _96  and  _99
REMARK   35  A    between atoms: _99  and  _100
REMARK   36  A    between atoms: _103  and  _105
REMARK   37  A    between atoms: _105  and  _106
REMARK   38  A    between atoms: _105  and  _108
REMARK   39  A    between atoms: _108  and  _109
REMARK   40  A    between atoms: _109  and  _110
REMARK   41  A    between atoms: _115  and  _117
REMARK   42  A    between atoms: _128  and  _131
REMARK   43  A    between atoms: _131  and  _132
REMARK   44  A    between atoms: _140  and  _141
REMARK   45  A    between atoms: _149  and  _151
REMARK   46  A    between atoms: _151  and  _152
REMARK   47  A    between atoms: _151  and  _154
REMARK   48  A    between atoms: _154  and  _155
REMARK   49  A    between atoms: _155  and  _156
REMARK   50  A    between atoms: _159  and  _161
REMARK   51  A    between atoms: _161  and  _162
REMARK   52  A    between atoms: _161  and  _164
REMARK   53  A    between atoms: _164  and  _165
REMARK   54  A    between atoms: _170  and  _172
REMARK   55  A    between atoms: _172  and  _173
REMARK   56  A    between atoms: _172  and  _175
REMARK   57  A    between atoms: _175  and  _176
REMARK   58  A    between atoms: _176  and  _177
REMARK   59  A    between atoms: _180  and  _182
REMARK   60  A    between atoms: _182  and  _183
REMARK   61  A    between atoms: _182  and  _185
REMARK   62  A    between atoms: _185  and  _186
REMARK   63  A    between atoms: _189  and  _191
REMARK   64  A    between atoms: _191  and  _192
REMARK   65  A    between atoms: _191  and  _194
REMARK   66  A    between atoms: _194  and  _195
REMARK   67  A    between atoms: _196  and  ZN_384
REMARK   68  A    between atoms: _200  and  _202
REMARK   69  A    between atoms: _202  and  _203
REMARK   70  A    between atoms: _202  and  _205
REMARK   71  A    between atoms: _205  and  _206
REMARK   72  A    between atoms: _209  and  _211
REMARK   73  A    between atoms: _211  and  _212
REMARK   74  A    between atoms: _211  and  _214
REMARK   75  A    between atoms: _217  and  _219
REMARK   76  A    between atoms: _219  and  _220
REMARK   77  A    between atoms: _219  and  _222
REMARK   78  A    between atoms: _222  and  _223
REMARK   79  A    between atoms: _228  and  _230
REMARK   80  A    between atoms: _230  and  _231
REMARK   81  A    between atoms: _230  and  _233
REMARK   82  A    between atoms: _233  and  _234
REMARK   83  A    between atoms: _240  and  _242
REMARK   84  A    between atoms: _242  and  _243
REMARK   85  A    between atoms: _242  and  _245
REMARK   86  A    between atoms: _248  and  _250
REMARK   87  A    between atoms: _250  and  _251
REMARK   88  A    between atoms: _250  and  _253
REMARK   89  A    between atoms: _253  and  _254
REMARK   90  A    between atoms: _257  and  _259
REMARK   91  A    between atoms: _259  and  _260
REMARK   92  A    between atoms: _259  and  _262
REMARK   93  A    between atoms: _265  and  _267
REMARK   94  A    between atoms: _267  and  _268
REMARK   95  A    between atoms: _267  and  _270
REMARK   96  A    between atoms: _270  and  _271
REMARK   97  A    between atoms: _273  and  _275
REMARK   98  A    between atoms: _275  and  _276
REMARK   99  A    between atoms: _275  and  _278
REMARK  100  A    between atoms: _278  and  _279
REMARK  101  A    between atoms: _282  and  _284
REMARK  102  A    between atoms: _284  and  _285
REMARK  103  A    between atoms: _284  and  _287
REMARK  104  A    between atoms: _287  and  _288
REMARK  105  A    between atoms: _291  and  _293
REMARK  106  A    between atoms: _293  and  _294
REMARK  107  A    between atoms: _293  and  _296
REMARK  108  A    between atoms: _296  and  _297
REMARK  109  A    between atoms: _301  and  _302
REMARK  110  A    between atoms: _308  and  _309
REMARK  111  A    between atoms: _314  and  _316
REMARK  112  A    between atoms: _316  and  _317
REMARK  113  A    between atoms: _316  and  _319
REMARK  114  A    between atoms: _319  and  _320
REMARK  115  A    between atoms: _323  and  _325
REMARK  116  A    between atoms: _325  and  _326
REMARK  117  A    between atoms: _325  and  _328
REMARK  118  A    between atoms: _328  and  _329
REMARK  119  A    between atoms: _332  and  _334
REMARK  120  A    between atoms: _334  and  _335
REMARK  121  A    between atoms: _334  and  _337
REMARK  122  A    between atoms: _340  and  _342
REMARK  123  A    between atoms: _342  and  _343
REMARK  124  A    between atoms: _342  and  _345
REMARK  125  A    between atoms: _345  and  _346
REMARK  126  A    between atoms: _356  and  _358
REMARK  127  A    between atoms: _358  and  _359
REMARK  128  A    between atoms: _358  and  _361
REMARK  129  A    between atoms: _361  and  _362
REMARK  130  A    between atoms: _367  and  _369
REMARK  131  A    between atoms: _369  and  _370
REMARK  132  A    between atoms: _369  and  _372
REMARK  133  A    between atoms: _372  and  _373
REMARK  134  A    between atoms: _373  and  _374
REMARK  135  A    between atoms: _374  and  _375
REMARK                            x       y       z     vdW  Elec       q    Type
REMARK                         _______ _______ _______ _____ _____    ______ ____
ROOT
ATOM      1  CG  TYR A   1      23.076  -7.395  11.951  0.00  0.00    -0.020 A 
ATOM      2  CD2 TYR A   1      22.683  -7.326  13.306  0.00  0.00    -0.001 A 
ATOM      3  CE2 TYR A   1      21.833  -6.307  13.755  0.00  0.00    +0.036 A 
ATOM      4  CZ  TYR A   1      21.338  -5.406  12.820  0.00  0.00    +0.134 A 
ATOM      5  CE1 TYR A   1      21.711  -5.493  11.452  0.00  0.00    +0.036 A 
ATOM      6  CD1 TYR A   1      22.585  -6.472  11.056  0.00  0.00    -0.001 A 
ENDROOT
BRANCH   4   7
ATOM      7  OH  TYR A   1      20.499  -4.399  13.208  0.00  0.00    -0.506 OA
ATOM      8  HH  TYR A   1      20.331  -4.468  14.181  0.00  0.00    +0.292 HD
ENDBRANCH   4   7
BRANCH   1   9
ATOM      9  CB  TYR A   1      24.015  -8.460  11.455  0.00  0.00    +0.051 C 
BRANCH   9  10
ATOM     10  CA  TYR A   1      25.508  -8.055  11.573  0.00  0.00    +0.137 C 
BRANCH  10  11
ATOM     11  N   TYR A   1      25.829  -6.927  10.747  0.00  0.00    -0.239 NA
ATOM     12  H   TYR A   1      25.781  -7.020   9.712  0.00  0.00    +0.142 HD
ENDBRANCH  10  11
BRANCH  10  13
ATOM     13  C   TYR A   1      26.383  -9.260  11.278  0.00  0.00    +0.224 C 
ATOM     14  O   TYR A   1      26.095 -10.359  11.754  0.00  0.00    -0.287 OA
ENDBRANCH  10  13
ENDBRANCH   9  10
ENDBRANCH   1   9
TORSDOF 5
REMARK  Name = ../refined-set-2016/4q7s/4q7s_pocket.pdb
REMARK  135 active torsions:
REMARK  status: ('A' for Active; 'I' for Inactive)
REMARK    1  A    between atoms: _1  and  _3
REMARK    2  A    between atoms: _3  and  _4
REMARK    3  A    between atoms: _3  and  _6
REMARK    4  A    between atoms: _6  and  _7
REMARK    5  A    between atoms: _17  and  _19
REMARK    6  A    between atoms: _19  and  _20
REMARK    7  A    between atoms: _19  and  _22
REMARK    8  A    between atoms: _22  and  _23
REMARK    9  A    between atoms: _28  and  _29
REMARK   10  A    between atoms: _31  and  _33
REMARK   11  A    between atoms: _33  and  _34
REMARK   12  A    between atoms: _33  and  _36
REMARK   13  A    between atoms: _36  and  _37
REMARK   14  A    between atoms: _47  and  _49
REMARK   15  A    between atoms: _49  and  _50
REMARK   16  A    between atoms: _49  and  _52
REMARK   17  A    between atoms: _52  and  _53
REMARK   18  A    between atoms: _55  and  _57
REMARK   19  A    between atoms: _57  and  _58
REMARK   20  A    between atoms: _57  and  _60
REMARK   21  A    between atoms: _60  and  _61
REMARK   22  A    between atoms: _66  and  _68
REMARK   23  A    between atoms: _68  and  _69
REMARK   24  A    between atoms: _68  and  _71
REMARK   25  A    between atoms: _71  and  _72
REMARK   26  A    between atoms: _77  and  _79
REMARK   27  A    between atoms: _79  and  _80
REMARK   28  A    between atoms: _83  and  _85
REMARK   29  A    between atoms: _85  and  _86
REMARK   30  A    between atoms: _85  and  _88
REMARK   31  A    between atoms: _88  and  _89
REMARK   32  A    between atoms: _94  and  _96
REMARK   33  A    between atoms: _96  and  _97
REMARK   34  A    between atoms: _96  and  _99
REMARK   35  A    between atoms: _99  and  _100
REMARK   36  A    between atoms: _103  and  _105
REMARK   37  A    between atoms: _105  and  _106
REMARK   38  A    between atoms: _105  and  _108
REMARK   39  A    between atoms: _108  and  _109
REMARK   40  A    between atoms: _109  and  _110
REMARK   41  A    between atoms: _115  and  _117
REMARK   42  A    between atoms: _128  and  _131
REMARK   43  A    between atoms: _131  and  _132
REMARK   44  A    between atoms: _140  and  _141
REMARK   45  A    between atoms: _149  and  _151
REMARK   46  A    between atoms: _151  and  _152
REMARK   47  A    between atoms: _151  and  _154
REMARK   48  A    between atoms: _154  and  _155
REMARK   49  A    between atoms: _155  and  _156
REMARK   50  A    between atoms: _159  and  _161
REMARK   51  A    between atoms: _161  and  _162
REMARK   52  A    between atoms: _161  and  _164
REMARK   53  A    between atoms: _164  and  _165
REMARK   54  A    between atoms: _170  and  _172
REMARK   55  A    between atoms: _172  and  _173
REMARK   56  A    between atoms: _172  and  _175
REMARK   57  A    between atoms: _175  and  _176
REMARK   58  A    between atoms: _176  and  _177
REMARK   59  A    between atoms: _180  and  _182
REMARK   60  A    between atoms: _182  and  _183
REMARK   61  A    between atoms: _182  and  _185
REMARK   62  A    between atoms: _185  and  _186
REMARK   63  A    between atoms: _189  and  _191
REMARK   64  A    between atoms: _191  and  _192
REMARK   65  A    between atoms: _191  and  _194
REMARK   66  A    between atoms: _194  and  _195
REMARK   67  A    between atoms: _196  and  ZN_384
REMARK   68  A    between atoms: _200  and  _202
REMARK   69  A    between atoms: _202  and  _203
REMARK   70  A    between atoms: _202  and  _205
REMARK   71  A    between atoms: _205  and  _206
REMARK   72  A    between atoms: _209  and  _211
REMARK   73  A    between atoms: _211  and  _212
REMARK   74  A    between atoms: _211  and  _214
REMARK   75  A    between atoms: _217  and  _219
REMARK   76  A    between atoms: _219  and  _220
REMARK   77  A    between atoms: _219  and  _222
REMARK   78  A    between atoms: _222  and  _223
REMARK   79  A    between atoms: _228  and  _230
REMARK   80  A    between atoms: _230  and  _231
REMARK   81  A    between atoms: _230  and  _233
REMARK   82  A    between atoms: _233  and  _234
REMARK   83  A    between atoms: _240  and  _242
REMARK   84  A    between atoms: _242  and  _243
REMARK   85  A    between atoms: _242  and  _245
REMARK   86  A    between atoms: _248  and  _250
REMARK   87  A    between atoms: _250  and  _251
REMARK   88  A    between atoms: _250  and  _253
REMARK   89  A    between atoms: _253  and  _254
REMARK   90  A    between atoms: _257  and  _259
REMARK   91  A    between atoms: _259  and  _260
REMARK   92  A    between atoms: _259  and  _262
REMARK   93  A    between atoms: _265  and  _267
REMARK   94  A    between atoms: _267  and  _268
REMARK   95  A    between atoms: _267  and  _270
REMARK   96  A    between atoms: _270  and  _271
REMARK   97  A    between atoms: _273  and  _275
REMARK   98  A    between atoms: _275  and  _276
REMARK   99  A    between atoms: _275  and  _278
REMARK  100  A    between atoms: _278  and  _279
REMARK  101  A    between atoms: _282  and  _284
REMARK  102  A    between atoms: _284  and  _285
REMARK  103  A    between atoms: _284  and  _287
REMARK  104  A    between atoms: _287  and  _288
REMARK  105  A    between atoms: _291  and  _293
REMARK  106  A    between atoms: _293  and  _294
REMARK  107  A    between atoms: _293  and  _296
REMARK  108  A    between atoms: _296  and  _297
REMARK  109  A    between atoms: _301  and  _302
REMARK  110  A    between atoms: _308  and  _309
REMARK  111  A    between atoms: _314  and  _316
REMARK  112  A    between atoms: _316  and  _317
REMARK  113  A    between atoms: _316  and  _319
REMARK  114  A    between atoms: _319  and  _320
REMARK  115  A    between atoms: _323  and  _325
REMARK  116  A    between atoms: _325  and  _326
REMARK  117  A    between atoms: _325  and  _328
REMARK  118  A    between atoms: _328  and  _329
REMARK  119  A    between atoms: _332  and  _334
REMARK  120  A    between atoms: _334  and  _335
REMARK  121  A    between atoms: _334  and  _337
REMARK  122  A    between atoms: _340  and  _342
REMARK  123  A    between atoms: _342  and  _343
REMARK  124  A    between atoms: _342  and  _345
REMARK  125  A    between atoms: _345  and  _346
REMARK  126  A    between atoms: _356  and  _358
REMARK  127  A    between atoms: _358  and  _359
REMARK  128  A    between atoms: _358  and  _361
REMARK  129  A    between atoms: _361  and  _362
REMARK  130  A    between atoms: _367  and  _369
REMARK  131  A    between atoms: _369  and  _370
REMARK  132  A    between atoms: _369  and  _372
REMARK  133  A    between atoms: _372  and  _373
REMARK  134  A    between atoms: _373  and  _374
REMARK  135  A    between atoms: _374  and  _375
REMARK                            x       y       z     vdW  Elec       q    Type
REMARK                         _______ _______ _______ _____ _____    ______ ____
ROOT
ATOM      1  CG  TRP A   1      27.444  -2.793  16.779  0.00  0.00    -0.002 A 
ATOM      2  CD2 TRP A   1      26.044  -3.179  16.765  0.00  0.00    +0.013 A 
ATOM      3  CE3 TRP A   1      24.997  -3.035  17.682  0.00  0.00    +0.001 A 
ATOM      4  CZ3 TRP A   1      23.744  -3.539  17.362  0.00  0.00    +0.000 A 
ATOM      5  CH2 TRP A   1      23.489  -4.140  16.109  0.00  0.00    +0.001 A 
ATOM      6  CZ2 TRP A   1      24.503  -4.284  15.183  0.00  0.00    +0.017 A 
ATOM      7  CE2 TRP A   1      25.780  -3.803  15.533  0.00  0.00    +0.056 A 
ATOM      8  NE1 TRP A   1      26.944  -3.798  14.805  0.00  0.00    -0.352 N 
ATOM      9  HE1 TRP A   1      27.068  -4.202  13.855  0.00  0.00    +0.166 HD
ATOM     10  CD1 TRP A   1      27.949  -3.150  15.566  0.00  0.00    +0.068 A 
ENDROOT
BRANCH   1  11
ATOM     11  CB  TRP A   1      28.174  -2.021  17.925  0.00  0.00    +0.053 C 
BRANCH  11  12
ATOM     12  CA  TRP A   1      29.696  -1.964  17.773  0.00  0.00    +0.137 C 
BRANCH  12  13
ATOM     13  N   TRP A   1      30.288  -3.294  17.927  0.00  0.00    -0.239 NA
ATOM     14  H   TRP A   1      29.666  -4.098  18.149  0.00  0.00    +0.142 HD
ENDBRANCH  12  13
BRANCH  12  15
ATOM     15  C   TRP A   1      30.256  -0.983  18.794  0.00  0.00    +0.224 C 
ATOM     16  O   TRP A   1      30.306   0.223  18.510  0.00  0.00    -0.287 OA
ENDBRANCH  12  15
ENDBRANCH  11  12
ENDBRANCH   1  11
TORSDOF 4
REMARK  Name = ../refined-set-2016/4q7s/4q7s_pocket.pdb
REMARK  135 active torsions:
REMARK  status: ('A' for Active; 'I' for Inactive)
REMARK    1  A    between atoms: _1  and  _3
REMARK    2  A    between atoms: _3  and  _4
REMARK    3  A    between atoms: _3  and  _6
REMARK    4  A    between atoms: _6  and  _7
REMARK    5  A    between atoms: _17  and  _19
REMARK    6  A    between atoms: _19  and  _20
REMARK    7  A    between atoms: _19  and  _22
REMARK    8  A    between atoms: _22  and  _23
REMARK    9  A    between atoms: _28  and  _29
REMARK   10  A    between atoms: _31  and  _33
REMARK   11  A    between atoms: _33  and  _34
REMARK   12  A    between atoms: _33  and  _36
REMARK   13  A    between atoms: _36  and  _37
REMARK   14  A    between atoms: _47  and  _49
REMARK   15  A    between atoms: _49  and  _50
REMARK   16  A    between atoms: _49  and  _52
REMARK   17  A    between atoms: _52  and  _53
REMARK   18  A    between atoms: _55  and  _57
REMARK   19  A    between atoms: _57  and  _58
REMARK   20  A    between atoms: _57  and  _60
REMARK   21  A    between atoms: _60  and  _61
REMARK   22  A    between atoms: _66  and  _68
REMARK   23  A    between atoms: _68  and  _69
REMARK   24  A    between atoms: _68  and  _71
REMARK   25  A    between atoms: _71  and  _72
REMARK   26  A    between atoms: _77  and  _79
REMARK   27  A    between atoms: _79  and  _80
REMARK   28  A    between atoms: _83  and  _85
REMARK   29  A    between atoms: _85  and  _86
REMARK   30  A    between atoms: _85  and  _88
REMARK   31  A    between atoms: _88  and  _89
REMARK   32  A    between atoms: _94  and  _96
REMARK   33  A    between atoms: _96  and  _97
REMARK   34  A    between atoms: _96  and  _99
REMARK   35  A    between atoms: _99  and  _100
REMARK   36  A    between atoms: _103  and  _105
REMARK   37  A    between atoms: _105  and  _106
REMARK   38  A    between atoms: _105  and  _108
REMARK   39  A    between atoms: _108  and  _109
REMARK   40  A    between atoms: _109  and  _110
REMARK   41  A    between atoms: _115  and  _117
REMARK   42  A    between atoms: _128  and  _131
REMARK   43  A    between atoms: _131  and  _132
REMARK   44  A    between atoms: _140  and  _141
REMARK   45  A    between atoms: _149  and  _151
REMARK   46  A    between atoms: _151  and  _152
REMARK   47  A    between atoms: _151  and  _154
REMARK   48  A    between atoms: _154  and  _155
REMARK   49  A    between atoms: _155  and  _156
REMARK   50  A    between atoms: _159  and  _161
REMARK   51  A    between atoms: _161  and  _162
REMARK   52  A    between atoms: _161  and  _164
REMARK   53  A    between atoms: _164  and  _165
REMARK   54  A    between atoms: _170  and  _172
REMARK   55  A    between atoms: _172  and  _173
REMARK   56  A    between atoms: _172  and  _175
REMARK   57  A    between atoms: _175  and  _176
REMARK   58  A    between atoms: _176  and  _177
REMARK   59  A    between atoms: _180  and  _182
REMARK   60  A    between atoms: _182  and  _183
REMARK   61  A    between atoms: _182  and  _185
REMARK   62  A    between atoms: _185  and  _186
REMARK   63  A    between atoms: _189  and  _191
REMARK   64  A    between atoms: _191  and  _192
REMARK   65  A    between atoms: _191  and  _194
REMARK   66  A    between atoms: _194  and  _195
REMARK   67  A    between atoms: _196  and  ZN_384
REMARK   68  A    between atoms: _200  and  _202
REMARK   69  A    between atoms: _202  and  _203
REMARK   70  A    between atoms: _202  and  _205
REMARK   71  A    between atoms: _205  and  _206
REMARK   72  A    between atoms: _209  and  _211
REMARK   73  A    between atoms: _211  and  _212
REMARK   74  A    between atoms: _211  and  _214
REMARK   75  A    between atoms: _217  and  _219
REMARK   76  A    between atoms: _219  and  _220
REMARK   77  A    between atoms: _219  and  _222
REMARK   78  A    between atoms: _222  and  _223
REMARK   79  A    between atoms: _228  and  _230
REMARK   80  A    between atoms: _230  and  _231
REMARK   81  A    between atoms: _230  and  _233
REMARK   82  A    between atoms: _233  and  _234
REMARK   83  A    between atoms: _240  and  _242
REMARK   84  A    between atoms: _242  and  _243
REMARK   85  A    between atoms: _242  and  _245
REMARK   86  A    between atoms: _248  and  _250
REMARK   87  A    between atoms: _250  and  _251
REMARK   88  A    between atoms: _250  and  _253
REMARK   89  A    between atoms: _253  and  _254
REMARK   90  A    between atoms: _257  and  _259
REMARK   91  A    between atoms: _259  and  _260
REMARK   92  A    between atoms: _259  and  _262
REMARK   93  A    between atoms: _265  and  _267
REMARK   94  A    between atoms: _267  and  _268
REMARK   95  A    between atoms: _267  and  _270
REMARK   96  A    between atoms: _270  and  _271
REMARK   97  A    between atoms: _273  and  _275
REMARK   98  A    between atoms: _275  and  _276
REMARK   99  A    between atoms: _275  and  _278
REMARK  100  A    between atoms: _278  and  _279
REMARK  101  A    between atoms: _282  and  _284
REMARK  102  A    between atoms: _284  and  _285
REMARK  103  A    between atoms: _284  and  _287
REMARK  104  A    between atoms: _287  and  _288
REMARK  105  A    between atoms: _291  and  _293
REMARK  106  A    between atoms: _293  and  _294
REMARK  107  A    between atoms: _293  and  _296
REMARK  108  A    between atoms: _296  and  _297
REMARK  109  A    between atoms: _301  and  _302
REMARK  110  A    between atoms: _308  and  _309
REMARK  111  A    between atoms: _314  and  _316
REMARK  112  A    between atoms: _316  and  _317
REMARK  113  A    between atoms: _316  and  _319
REMARK  114  A    between atoms: _319  and  _320
REMARK  115  A    between atoms: _323  and  _325
REMARK  116  A    between atoms: _325  and  _326
REMARK  117  A    between atoms: _325  and  _328
REMARK  118  A    between atoms: _328  and  _329
REMARK  119  A    between atoms: _332  and  _334
REMARK  120  A    between atoms: _334  and  _335
REMARK  121  A    between atoms: _334  and  _337
REMARK  122  A    between atoms: _340  and  _342
REMARK  123  A    between atoms: _342  and  _343
REMARK  124  A    between atoms: _342  and  _345
REMARK  125  A    between atoms: _345  and  _346
REMARK  126  A    between atoms: _356  and  _358
REMARK  127  A    between atoms: _358  and  _359
REMARK  128  A    between atoms: _358  and  _361
REMARK  129  A    between atoms: _361  and  _362
REMARK  130  A    between atoms: _367  and  _369
REMARK  131  A    between atoms: _369  and  _370
REMARK  132  A    between atoms: _369  and  _372
REMARK  133  A    between atoms: _372  and  _373
REMARK  134  A    between atoms: _373  and  _374
REMARK  135  A    between atoms: _374  and  _375
REMARK                            x       y       z     vdW  Elec       q    Type
REMARK                         _______ _______ _______ _____ _____    ______ ____
ROOT
ATOM      1  CA  SER A   1      18.197  -2.518  24.237  0.00  0.00    +0.163 C 
ENDROOT
BRANCH   1   2
ATOM      2  N   SER A   1      19.268  -1.682  24.761  0.00  0.00    -0.237 NA
ATOM      3  H   SER A   1      19.807  -1.103  24.086  0.00  0.00    +0.142 HD
ENDBRANCH   1   2
BRANCH   1   4
ATOM      4  C   SER A   1      18.725  -3.456  23.150  0.00  0.00    +0.227 C 
ATOM      5  O   SER A   1      19.688  -3.117  22.452  0.00  0.00    -0.287 OA
ENDBRANCH   1   4
BRANCH   1   6
ATOM      6  CB  SER A   1      17.029  -1.627  23.725  0.00  0.00    +0.162 C 
BRANCH   6   7
ATOM      7  OG  SER A   1      16.408  -0.967  24.880  0.00  0.00    -0.380 OA
ATOM      8  H   SER A   1      16.062  -1.653  25.504  0.00  0.00    +0.211 HD
ENDBRANCH   6   7
ENDBRANCH   1   6
TORSDOF 4
REMARK  Name = ../refined-set-2016/4q7s/4q7s_pocket.pdb
REMARK  135 active torsions:
REMARK  status: ('A' for Active; 'I' for Inactive)
REMARK    1  A    between atoms: _1  and  _3
REMARK    2  A    between atoms: _3  and  _4
REMARK    3  A    between atoms: _3  and  _6
REMARK    4  A    between atoms: _6  and  _7
REMARK    5  A    between atoms: _17  and  _19
REMARK    6  A    between atoms: _19  and  _20
REMARK    7  A    between atoms: _19  and  _22
REMARK    8  A    between atoms: _22  and  _23
REMARK    9  A    between atoms: _28  and  _29
REMARK   10  A    between atoms: _31  and  _33
REMARK   11  A    between atoms: _33  and  _34
REMARK   12  A    between atoms: _33  and  _36
REMARK   13  A    between atoms: _36  and  _37
REMARK   14  A    between atoms: _47  and  _49
REMARK   15  A    between atoms: _49  and  _50
REMARK   16  A    between atoms: _49  and  _52
REMARK   17  A    between atoms: _52  and  _53
REMARK   18  A    between atoms: _55  and  _57
REMARK   19  A    between atoms: _57  and  _58
REMARK   20  A    between atoms: _57  and  _60
REMARK   21  A    between atoms: _60  and  _61
REMARK   22  A    between atoms: _66  and  _68
REMARK   23  A    between atoms: _68  and  _69
REMARK   24  A    between atoms: _68  and  _71
REMARK   25  A    between atoms: _71  and  _72
REMARK   26  A    between atoms: _77  and  _79
REMARK   27  A    between atoms: _79  and  _80
REMARK   28  A    between atoms: _83  and  _85
REMARK   29  A    between atoms: _85  and  _86
REMARK   30  A    between atoms: _85  and  _88
REMARK   31  A    between atoms: _88  and  _89
REMARK   32  A    between atoms: _94  and  _96
REMARK   33  A    between atoms: _96  and  _97
REMARK   34  A    between atoms: _96  and  _99
REMARK   35  A    between atoms: _99  and  _100
REMARK   36  A    between atoms: _103  and  _105
REMARK   37  A    between atoms: _105  and  _106
REMARK   38  A    between atoms: _105  and  _108
REMARK   39  A    between atoms: _108  and  _109
REMARK   40  A    between atoms: _109  and  _110
REMARK   41  A    between atoms: _115  and  _117
REMARK   42  A    between atoms: _128  and  _131
REMARK   43  A    between atoms: _131  and  _132
REMARK   44  A    between atoms: _140  and  _141
REMARK   45  A    between atoms: _149  and  _151
REMARK   46  A    between atoms: _151  and  _152
REMARK   47  A    between atoms: _151  and  _154
REMARK   48  A    between atoms: _154  and  _155
REMARK   49  A    between atoms: _155  and  _156
REMARK   50  A    between atoms: _159  and  _161
REMARK   51  A    between atoms: _161  and  _162
REMARK   52  A    between atoms: _161  and  _164
REMARK   53  A    between atoms: _164  and  _165
REMARK   54  A    between atoms: _170  and  _172
REMARK   55  A    between atoms: _172  and  _173
REMARK   56  A    between atoms: _172  and  _175
REMARK   57  A    between atoms: _175  and  _176
REMARK   58  A    between atoms: _176  and  _177
REMARK   59  A    between atoms: _180  and  _182
REMARK   60  A    between atoms: _182  and  _183
REMARK   61  A    between atoms: _182  and  _185
REMARK   62  A    between atoms: _185  and  _186
REMARK   63  A    between atoms: _189  and  _191
REMARK   64  A    between atoms: _191  and  _192
REMARK   65  A    between atoms: _191  and  _194
REMARK   66  A    between atoms: _194  and  _195
REMARK   67  A    between atoms: _196  and  ZN_384
REMARK   68  A    between atoms: _200  and  _202
REMARK   69  A    between atoms: _202  and  _203
REMARK   70  A    between atoms: _202  and  _205
REMARK   71  A    between atoms: _205  and  _206
REMARK   72  A    between atoms: _209  and  _211
REMARK   73  A    between atoms: _211  and  _212
REMARK   74  A    between atoms: _211  and  _214
REMARK   75  A    between atoms: _217  and  _219
REMARK   76  A    between atoms: _219  and  _220
REMARK   77  A    between atoms: _219  and  _222
REMARK   78  A    between atoms: _222  and  _223
REMARK   79  A    between atoms: _228  and  _230
REMARK   80  A    between atoms: _230  and  _231
REMARK   81  A    between atoms: _230  and  _233
REMARK   82  A    between atoms: _233  and  _234
REMARK   83  A    between atoms: _240  and  _242
REMARK   84  A    between atoms: _242  and  _243
REMARK   85  A    between atoms: _242  and  _245
REMARK   86  A    between atoms: _248  and  _250
REMARK   87  A    between atoms: _250  and  _251
REMARK   88  A    between atoms: _250  and  _253
REMARK   89  A    between atoms: _253  and  _254
REMARK   90  A    between atoms: _257  and  _259
REMARK   91  A    between atoms: _259  and  _260
REMARK   92  A    between atoms: _259  and  _262
REMARK   93  A    between atoms: _265  and  _267
REMARK   94  A    between atoms: _267  and  _268
REMARK   95  A    between atoms: _267  and  _270
REMARK   96  A    between atoms: _270  and  _271
REMARK   97  A    between atoms: _273  and  _275
REMARK   98  A    between atoms: _275  and  _276
REMARK   99  A    between atoms: _275  and  _278
REMARK  100  A    between atoms: _278  and  _279
REMARK  101  A    between atoms: _282  and  _284
REMARK  102  A    between atoms: _284  and  _285
REMARK  103  A    between atoms: _284  and  _287
REMARK  104  A    between atoms: _287  and  _288
REMARK  105  A    between atoms: _291  and  _293
REMARK  106  A    between atoms: _293  and  _294
REMARK  107  A    between atoms: _293  and  _296
REMARK  108  A    between atoms: _296  and  _297
REMARK  109  A    between atoms: _301  and  _302
REMARK  110  A    between atoms: _308  and  _309
REMARK  111  A    between atoms: _314  and  _316
REMARK  112  A    between atoms: _316  and  _317
REMARK  113  A    between atoms: _316  and  _319
REMARK  114  A    between atoms: _319  and  _320
REMARK  115  A    between atoms: _323  and  _325
REMARK  116  A    between atoms: _325  and  _326
REMARK  117  A    between atoms: _325  and  _328
REMARK  118  A    between atoms: _328  and  _329
REMARK  119  A    between atoms: _332  and  _334
REMARK  120  A    between atoms: _334  and  _335
REMARK  121  A    between atoms: _334  and  _337
REMARK  122  A    between atoms: _340  and  _342
REMARK  123  A    between atoms: _342  and  _343
REMARK  124  A    between atoms: _342  and  _345
REMARK  125  A    between atoms: _345  and  _346
REMARK  126  A    between atoms: _356  and  _358
REMARK  127  A    between atoms: _358  and  _359
REMARK  128  A    between atoms: _358  and  _361
REMARK  129  A    between atoms: _361  and  _362
REMARK  130  A    between atoms: _367  and  _369
REMARK  131  A    between atoms: _369  and  _370
REMARK  132  A    between atoms: _369  and  _372
REMARK  133  A    between atoms: _372  and  _373
REMARK  134  A    between atoms: _373  and  _374
REMARK  135  A    between atoms: _374  and  _375
REMARK                            x       y       z     vdW  Elec       q    Type
REMARK                         _______ _______ _______ _____ _____    ______ ____
ROOT
ATOM      1  CB  ASN A   1      18.398   1.923   5.302  0.00  0.00    +0.110 C 
ENDROOT
BRANCH   1   2
ATOM      2  CG  ASN A   1      18.288   1.109   6.601  0.00  0.00    +0.221 C 
ATOM      3  ND2 ASN A   1      17.941   1.772   7.690  0.00  0.00    -0.329 N 
ATOM      4 HD21 ASN A   1      17.849   1.271   8.597  0.00  0.00    +0.145 HD
ATOM      5 HD22 ASN A   1      17.760   2.795   7.641  0.00  0.00    +0.145 HD
ATOM      6  OD1 ASN A   1      18.512  -0.108   6.616  0.00  0.00    -0.275 OA
ENDBRANCH   1   2
BRANCH   1   7
ATOM      7  CA  ASN A   1      18.800   1.037   4.080  0.00  0.00    +0.142 C 
BRANCH   7   8
ATOM      8  N   ASN A   1      17.669   0.185   3.652  0.00  0.00    -0.239 NA
ATOM      9  H   ASN A   1      17.104  -0.354   4.339  0.00  0.00    +0.142 HD
ENDBRANCH   7   8
BRANCH   7  10
ATOM     10  C   ASN A   1      20.084   0.284   4.333  0.00  0.00    +0.225 C 
ATOM     11  O   ASN A   1      21.043   0.822   4.935  0.00  0.00    -0.287 OA
ENDBRANCH   7  10
ENDBRANCH   1   7
TORSDOF 4
REMARK  Name = ../refined-set-2016/4q7s/4q7s_pocket.pdb
REMARK  135 active torsions:
REMARK  status: ('A' for Active; 'I' for Inactive)
REMARK    1  A    between atoms: _1  and  _3
REMARK    2  A    between atoms: _3  and  _4
REMARK    3  A    between atoms: _3  and  _6
REMARK    4  A    between atoms: _6  and  _7
REMARK    5  A    between atoms: _17  and  _19
REMARK    6  A    between atoms: _19  and  _20
REMARK    7  A    between atoms: _19  and  _22
REMARK    8  A    between atoms: _22  and  _23
REMARK    9  A    between atoms: _28  and  _29
REMARK   10  A    between atoms: _31  and  _33
REMARK   11  A    between atoms: _33  and  _34
REMARK   12  A    between atoms: _33  and  _36
REMARK   13  A    between atoms: _36  and  _37
REMARK   14  A    between atoms: _47  and  _49
REMARK   15  A    between atoms: _49  and  _50
REMARK   16  A    between atoms: _49  and  _52
REMARK   17  A    between atoms: _52  and  _53
REMARK   18  A    between atoms: _55  and  _57
REMARK   19  A    between atoms: _57  and  _58
REMARK   20  A    between atoms: _57  and  _60
REMARK   21  A    between atoms: _60  and  _61
REMARK   22  A    between atoms: _66  and  _68
REMARK   23  A    between atoms: _68  and  _69
REMARK   24  A    between atoms: _68  and  _71
REMARK   25  A    between atoms: _71  and  _72
REMARK   26  A    between atoms: _77  and  _79
REMARK   27  A    between atoms: _79  and  _80
REMARK   28  A    between atoms: _83  and  _85
REMARK   29  A    between atoms: _85  and  _86
REMARK   30  A    between atoms: _85  and  _88
REMARK   31  A    between atoms: _88  and  _89
REMARK   32  A    between atoms: _94  and  _96
REMARK   33  A    between atoms: _96  and  _97
REMARK   34  A    between atoms: _96  and  _99
REMARK   35  A    between atoms: _99  and  _100
REMARK   36  A    between atoms: _103  and  _105
REMARK   37  A    between atoms: _105  and  _106
REMARK   38  A    between atoms: _105  and  _108
REMARK   39  A    between atoms: _108  and  _109
REMARK   40  A    between atoms: _109  and  _110
REMARK   41  A    between atoms: _115  and  _117
REMARK   42  A    between atoms: _128  and  _131
REMARK   43  A    between atoms: _131  and  _132
REMARK   44  A    between atoms: _140  and  _141
REMARK   45  A    between atoms: _149  and  _151
REMARK   46  A    between atoms: _151  and  _152
REMARK   47  A    between atoms: _151  and  _154
REMARK   48  A    between atoms: _154  and  _155
REMARK   49  A    between atoms: _155  and  _156
REMARK   50  A    between atoms: _159  and  _161
REMARK   51  A    between atoms: _161  and  _162
REMARK   52  A    between atoms: _161  and  _164
REMARK   53  A    between atoms: _164  and  _165
REMARK   54  A    between atoms: _170  and  _172
REMARK   55  A    between atoms: _172  and  _173
REMARK   56  A    between atoms: _172  and  _175
REMARK   57  A    between atoms: _175  and  _176
REMARK   58  A    between atoms: _176  and  _177
REMARK   59  A    between atoms: _180  and  _182
REMARK   60  A    between atoms: _182  and  _183
REMARK   61  A    between atoms: _182  and  _185
REMARK   62  A    between atoms: _185  and  _186
REMARK   63  A    between atoms: _189  and  _191
REMARK   64  A    between atoms: _191  and  _192
REMARK   65  A    between atoms: _191  and  _194
REMARK   66  A    between atoms: _194  and  _195
REMARK   67  A    between atoms: _196  and  ZN_384
REMARK   68  A    between atoms: _200  and  _202
REMARK   69  A    between atoms: _202  and  _203
REMARK   70  A    between atoms: _202  and  _205
REMARK   71  A    between atoms: _205  and  _206
REMARK   72  A    between atoms: _209  and  _211
REMARK   73  A    between atoms: _211  and  _212
REMARK   74  A    between atoms: _211  and  _214
REMARK   75  A    between atoms: _217  and  _219
REMARK   76  A    between atoms: _219  and  _220
REMARK   77  A    between atoms: _219  and  _222
REMARK   78  A    between atoms: _222  and  _223
REMARK   79  A    between atoms: _228  and  _230
REMARK   80  A    between atoms: _230  and  _231
REMARK   81  A    between atoms: _230  and  _233
REMARK   82  A    between atoms: _233  and  _234
REMARK   83  A    between atoms: _240  and  _242
REMARK   84  A    between atoms: _242  and  _243
REMARK   85  A    between atoms: _242  and  _245
REMARK   86  A    between atoms: _248  and  _250
REMARK   87  A    between atoms: _250  and  _251
REMARK   88  A    between atoms: _250  and  _253
REMARK   89  A    between atoms: _253  and  _254
REMARK   90  A    between atoms: _257  and  _259
REMARK   91  A    between atoms: _259  and  _260
REMARK   92  A    between atoms: _259  and  _262
REMARK   93  A    between atoms: _265  and  _267
REMARK   94  A    between atoms: _267  and  _268
REMARK   95  A    between atoms: _267  and  _270
REMARK   96  A    between atoms: _270  and  _271
REMARK   97  A    between atoms: _273  and  _275
REMARK   98  A    between atoms: _275  and  _276
REMARK   99  A    between atoms: _275  and  _278
REMARK  100  A    between atoms: _278  and  _279
REMARK  101  A    between atoms: _282  and  _284
REMARK  102  A    between atoms: _284  and  _285
REMARK  103  A    between atoms: _284  and  _287
REMARK  104  A    between atoms: _287  and  _288
REMARK  105  A    between atoms: _291  and  _293
REMARK  106  A    between atoms: _293  and  _294
REMARK  107  A    between atoms: _293  and  _296
REMARK  108  A    between atoms: _296  and  _297
REMARK  109  A    between atoms: _301  and  _302
REMARK  110  A    between atoms: _308  and  _309
REMARK  111  A    between atoms: _314  and  _316
REMARK  112  A    between atoms: _316  and  _317
REMARK  113  A    between atoms: _316  and  _319
REMARK  114  A    between atoms: _319  and  _320
REMARK  115  A    between atoms: _323  and  _325
REMARK  116  A    between atoms: _325  and  _326
REMARK  117  A    between atoms: _325  and  _328
REMARK  118  A    between atoms: _328  and  _329
REMARK  119  A    between atoms: _332  and  _334
REMARK  120  A    between atoms: _334  and  _335
REMARK  121  A    between atoms: _334  and  _337
REMARK  122  A    between atoms: _340  and  _342
REMARK  123  A    between atoms: _342  and  _343
REMARK  124  A    between atoms: _342  and  _345
REMARK  125  A    between atoms: _345  and  _346
REMARK  126  A    between atoms: _356  and  _358
REMARK  127  A    between atoms: _358  and  _359
REMARK  128  A    between atoms: _358  and  _361
REMARK  129  A    between atoms: _361  and  _362
REMARK  130  A    between atoms: _367  and  _369
REMARK  131  A    between atoms: _369  and  _370
REMARK  132  A    between atoms: _369  and  _372
REMARK  133  A    between atoms: _372  and  _373
REMARK  134  A    between atoms: _373  and  _374
REMARK  135  A    between atoms: _374  and  _375
REMARK                            x       y       z     vdW  Elec       q    Type
REMARK                         _______ _______ _______ _____ _____    ______ ____
ROOT
ATOM      1  CA  HIS A   1      20.293  -3.091   7.537  0.00  0.00    +0.151 C 
ENDROOT
BRANCH   1   2
ATOM      2  C   HIS A   1      18.885  -3.641   7.820  0.00  0.00    +0.239 C 
ATOM      3  O   HIS A   1      18.738  -4.629   8.515  0.00  0.00    -0.274 OA
ATOM      4  N   ALA A   2      17.867  -2.957   7.272  0.00  0.00    -0.298 N 
ATOM      5  H   ALA A   2      18.094  -2.107   6.717  0.00  0.00    +0.150 HD
BRANCH   4   6
ATOM      6  CA  ALA A   2      16.449  -3.334   7.407  0.00  0.00    +0.137 C 
ATOM      7  CB  ALA A   2      15.867  -2.898   8.771  0.00  0.00    +0.030 C 
BRANCH   6   8
ATOM      8  C   ALA A   2      15.753  -2.557   6.275  0.00  0.00    +0.227 C 
ATOM      9  O   ALA A   2      16.412  -1.925   5.448  0.00  0.00    -0.286 OA
ENDBRANCH   6   8
ENDBRANCH   4   6
ENDBRANCH   1   2
BRANCH   1  10
ATOM     10  N   HIS A   1      20.306  -2.373   6.244  0.00  0.00    -0.238 NA
ATOM     11  H   HIS A   1      19.557  -1.682   6.039  0.00  0.00    +0.142 HD
ENDBRANCH   1  10
BRANCH   1  12
ATOM     12  CB  HIS A   1      20.761  -2.189   8.712  0.00  0.00    +0.074 C 
BRANCH  12  13
ATOM     13  CG  HIS A   1      22.062  -1.475   8.450  0.00  0.00    +0.082 A 
ATOM     14  ND1 HIS A   1      23.295  -2.091   8.561  0.00  0.00    -0.227 NA
ATOM     15  CE1 HIS A   1      24.249  -1.227   8.262  0.00  0.00    +0.199 A 
ATOM     16  NE2 HIS A   1      23.678  -0.074   7.952  0.00  0.00    -0.221 NA
ATOM     17  CD2 HIS A   1      22.312  -0.201   8.064  0.00  0.00    +0.115 A 
ENDBRANCH  12  13
ENDBRANCH   1  12
TORSDOF 6
REMARK  Name = ../refined-set-2016/4q7s/4q7s_pocket.pdb
REMARK  135 active torsions:
REMARK  status: ('A' for Active; 'I' for Inactive)
REMARK    1  A    between atoms: _1  and  _3
REMARK    2  A    between atoms: _3  and  _4
REMARK    3  A    between atoms: _3  and  _6
REMARK    4  A    between atoms: _6  and  _7
REMARK    5  A    between atoms: _17  and  _19
REMARK    6  A    between atoms: _19  and  _20
REMARK    7  A    between atoms: _19  and  _22
REMARK    8  A    between atoms: _22  and  _23
REMARK    9  A    between atoms: _28  and  _29
REMARK   10  A    between atoms: _31  and  _33
REMARK   11  A    between atoms: _33  and  _34
REMARK   12  A    between atoms: _33  and  _36
REMARK   13  A    between atoms: _36  and  _37
REMARK   14  A    between atoms: _47  and  _49
REMARK   15  A    between atoms: _49  and  _50
REMARK   16  A    between atoms: _49  and  _52
REMARK   17  A    between atoms: _52  and  _53
REMARK   18  A    between atoms: _55  and  _57
REMARK   19  A    between atoms: _57  and  _58
REMARK   20  A    between atoms: _57  and  _60
REMARK   21  A    between atoms: _60  and  _61
REMARK   22  A    between atoms: _66  and  _68
REMARK   23  A    between atoms: _68  and  _69
REMARK   24  A    between atoms: _68  and  _71
REMARK   25  A    between atoms: _71  and  _72
REMARK   26  A    between atoms: _77  and  _79
REMARK   27  A    between atoms: _79  and  _80
REMARK   28  A    between atoms: _83  and  _85
REMARK   29  A    between atoms: _85  and  _86
REMARK   30  A    between atoms: _85  and  _88
REMARK   31  A    between atoms: _88  and  _89
REMARK   32  A    between atoms: _94  and  _96
REMARK   33  A    between atoms: _96  and  _97
REMARK   34  A    between atoms: _96  and  _99
REMARK   35  A    between atoms: _99  and  _100
REMARK   36  A    between atoms: _103  and  _105
REMARK   37  A    between atoms: _105  and  _106
REMARK   38  A    between atoms: _105  and  _108
REMARK   39  A    between atoms: _108  and  _109
REMARK   40  A    between atoms: _109  and  _110
REMARK   41  A    between atoms: _115  and  _117
REMARK   42  A    between atoms: _128  and  _131
REMARK   43  A    between atoms: _131  and  _132
REMARK   44  A    between atoms: _140  and  _141
REMARK   45  A    between atoms: _149  and  _151
REMARK   46  A    between atoms: _151  and  _152
REMARK   47  A    between atoms: _151  and  _154
REMARK   48  A    between atoms: _154  and  _155
REMARK   49  A    between atoms: _155  and  _156
REMARK   50  A    between atoms: _159  and  _161
REMARK   51  A    between atoms: _161  and  _162
REMARK   52  A    between atoms: _161  and  _164
REMARK   53  A    between atoms: _164  and  _165
REMARK   54  A    between atoms: _170  and  _172
REMARK   55  A    between atoms: _172  and  _173
REMARK   56  A    between atoms: _172  and  _175
REMARK   57  A    between atoms: _175  and  _176
REMARK   58  A    between atoms: _176  and  _177
REMARK   59  A    between atoms: _180  and  _182
REMARK   60  A    between atoms: _182  and  _183
REMARK   61  A    between atoms: _182  and  _185
REMARK   62  A    between atoms: _185  and  _186
REMARK   63  A    between atoms: _189  and  _191
REMARK   64  A    between atoms: _191  and  _192
REMARK   65  A    between atoms: _191  and  _194
REMARK   66  A    between atoms: _194  and  _195
REMARK   67  A    between atoms: _196  and  ZN_384
REMARK   68  A    between atoms: _200  and  _202
REMARK   69  A    between atoms: _202  and  _203
REMARK   70  A    between atoms: _202  and  _205
REMARK   71  A    between atoms: _205  and  _206
REMARK   72  A    between atoms: _209  and  _211
REMARK   73  A    between atoms: _211  and  _212
REMARK   74  A    between atoms: _211  and  _214
REMARK   75  A    between atoms: _217  and  _219
REMARK   76  A    between atoms: _219  and  _220
REMARK   77  A    between atoms: _219  and  _222
REMARK   78  A    between atoms: _222  and  _223
REMARK   79  A    between atoms: _228  and  _230
REMARK   80  A    between atoms: _230  and  _231
REMARK   81  A    between atoms: _230  and  _233
REMARK   82  A    between atoms: _233  and  _234
REMARK   83  A    between atoms: _240  and  _242
REMARK   84  A    between atoms: _242  and  _243
REMARK   85  A    between atoms: _242  and  _245
REMARK   86  A    between atoms: _248  and  _250
REMARK   87  A    between atoms: _250  and  _251
REMARK   88  A    between atoms: _250  and  _253
REMARK   89  A    between atoms: _253  and  _254
REMARK   90  A    between atoms: _257  and  _259
REMARK   91  A    between atoms: _259  and  _260
REMARK   92  A    between atoms: _259  and  _262
REMARK   93  A    between atoms: _265  and  _267
REMARK   94  A    between atoms: _267  and  _268
REMARK   95  A    between atoms: _267  and  _270
REMARK   96  A    between atoms: _270  and  _271
REMARK   97  A    between atoms: _273  and  _275
REMARK   98  A    between atoms: _275  and  _276
REMARK   99  A    between atoms: _275  and  _278
REMARK  100  A    between atoms: _278  and  _279
REMARK  101  A    between atoms: _282  and  _284
REMARK  102  A    between atoms: _284  and  _285
REMARK  103  A    between atoms: _284  and  _287
REMARK  104  A    between atoms: _287  and  _288
REMARK  105  A    between atoms: _291  and  _293
REMARK  106  A    between atoms: _293  and  _294
REMARK  107  A    between atoms: _293  and  _296
REMARK  108  A    between atoms: _296  and  _297
REMARK  109  A    between atoms: _301  and  _302
REMARK  110  A    between atoms: _308  and  _309
REMARK  111  A    between atoms: _314  and  _316
REMARK  112  A    between atoms: _316  and  _317
REMARK  113  A    between atoms: _316  and  _319
REMARK  114  A    between atoms: _319  and  _320
REMARK  115  A    between atoms: _323  and  _325
REMARK  116  A    between atoms: _325  and  _326
REMARK  117  A    between atoms: _325  and  _328
REMARK  118  A    between atoms: _328  and  _329
REMARK  119  A    between atoms: _332  and  _334
REMARK  120  A    between atoms: _334  and  _335
REMARK  121  A    between atoms: _334  and  _337
REMARK  122  A    between atoms: _340  and  _342
REMARK  123  A    between atoms: _342  and  _343
REMARK  124  A    between atoms: _342  and  _345
REMARK  125  A    between atoms: _345  and  _346
REMARK  126  A    between atoms: _356  and  _358
REMARK  127  A    between atoms: _358  and  _359
REMARK  128  A    between atoms: _358  and  _361
REMARK  129  A    between atoms: _361  and  _362
REMARK  130  A    between atoms: _367  and  _369
REMARK  131  A    between atoms: _369  and  _370
REMARK  132  A    between atoms: _369  and  _372
REMARK  133  A    between atoms: _372  and  _373
REMARK  134  A    between atoms: _373  and  _374
REMARK  135  A    between atoms: _374  and  _375
REMARK                            x       y       z     vdW  Elec       q    Type
REMARK                         _______ _______ _______ _____ _____    ______ ____
ROOT
ATOM      1  CB  ASN A   1      12.665   2.626   7.078  0.00  0.00    +0.110 C 
ENDROOT
BRANCH   1   2
ATOM      2  CG  ASN A   1      13.805   2.357   8.063  0.00  0.00    +0.221 C 
ATOM      3  OD1 ASN A   1      13.835   1.300   8.763  0.00  0.00    -0.275 OA
ATOM      4  ND2 ASN A   1      14.764   3.254   8.084  0.00  0.00    -0.329 N 
ATOM      5 HD21 ASN A   1      15.595   3.113   8.694  0.00  0.00    +0.145 HD
ATOM      6 HD22 ASN A   1      14.693   4.105   7.491  0.00  0.00    +0.145 HD
ENDBRANCH   1   2
BRANCH   1   7
ATOM      7  CA  ASN A   1      11.861   1.373   6.746  0.00  0.00    +0.142 C 
BRANCH   7   8
ATOM      8  N   ASN A   1      12.696   0.465   6.019  0.00  0.00    -0.239 NA
ATOM      9  H   ASN A   1      13.261   0.833   5.227  0.00  0.00    +0.142 HD
ENDBRANCH   7   8
BRANCH   7  10
ATOM     10  C   ASN A   1      10.675   1.813   5.895  0.00  0.00    +0.225 C 
ATOM     11  O   ASN A   1      10.842   2.234   4.737  0.00  0.00    -0.287 OA
ENDBRANCH   7  10
ENDBRANCH   1   7
TORSDOF 4
REMARK  Name = ../refined-set-2016/4q7s/4q7s_pocket.pdb
REMARK  135 active torsions:
REMARK  status: ('A' for Active; 'I' for Inactive)
REMARK    1  A    between atoms: _1  and  _3
REMARK    2  A    between atoms: _3  and  _4
REMARK    3  A    between atoms: _3  and  _6
REMARK    4  A    between atoms: _6  and  _7
REMARK    5  A    between atoms: _17  and  _19
REMARK    6  A    between atoms: _19  and  _20
REMARK    7  A    between atoms: _19  and  _22
REMARK    8  A    between atoms: _22  and  _23
REMARK    9  A    between atoms: _28  and  _29
REMARK   10  A    between atoms: _31  and  _33
REMARK   11  A    between atoms: _33  and  _34
REMARK   12  A    between atoms: _33  and  _36
REMARK   13  A    between atoms: _36  and  _37
REMARK   14  A    between atoms: _47  and  _49
REMARK   15  A    between atoms: _49  and  _50
REMARK   16  A    between atoms: _49  and  _52
REMARK   17  A    between atoms: _52  and  _53
REMARK   18  A    between atoms: _55  and  _57
REMARK   19  A    between atoms: _57  and  _58
REMARK   20  A    between atoms: _57  and  _60
REMARK   21  A    between atoms: _60  and  _61
REMARK   22  A    between atoms: _66  and  _68
REMARK   23  A    between atoms: _68  and  _69
REMARK   24  A    between atoms: _68  and  _71
REMARK   25  A    between atoms: _71  and  _72
REMARK   26  A    between atoms: _77  and  _79
REMARK   27  A    between atoms: _79  and  _80
REMARK   28  A    between atoms: _83  and  _85
REMARK   29  A    between atoms: _85  and  _86
REMARK   30  A    between atoms: _85  and  _88
REMARK   31  A    between atoms: _88  and  _89
REMARK   32  A    between atoms: _94  and  _96
REMARK   33  A    between atoms: _96  and  _97
REMARK   34  A    between atoms: _96  and  _99
REMARK   35  A    between atoms: _99  and  _100
REMARK   36  A    between atoms: _103  and  _105
REMARK   37  A    between atoms: _105  and  _106
REMARK   38  A    between atoms: _105  and  _108
REMARK   39  A    between atoms: _108  and  _109
REMARK   40  A    between atoms: _109  and  _110
REMARK   41  A    between atoms: _115  and  _117
REMARK   42  A    between atoms: _128  and  _131
REMARK   43  A    between atoms: _131  and  _132
REMARK   44  A    between atoms: _140  and  _141
REMARK   45  A    between atoms: _149  and  _151
REMARK   46  A    between atoms: _151  and  _152
REMARK   47  A    between atoms: _151  and  _154
REMARK   48  A    between atoms: _154  and  _155
REMARK   49  A    between atoms: _155  and  _156
REMARK   50  A    between atoms: _159  and  _161
REMARK   51  A    between atoms: _161  and  _162
REMARK   52  A    between atoms: _161  and  _164
REMARK   53  A    between atoms: _164  and  _165
REMARK   54  A    between atoms: _170  and  _172
REMARK   55  A    between atoms: _172  and  _173
REMARK   56  A    between atoms: _172  and  _175
REMARK   57  A    between atoms: _175  and  _176
REMARK   58  A    between atoms: _176  and  _177
REMARK   59  A    between atoms: _180  and  _182
REMARK   60  A    between atoms: _182  and  _183
REMARK   61  A    between atoms: _182  and  _185
REMARK   62  A    between atoms: _185  and  _186
REMARK   63  A    between atoms: _189  and  _191
REMARK   64  A    between atoms: _191  and  _192
REMARK   65  A    between atoms: _191  and  _194
REMARK   66  A    between atoms: _194  and  _195
REMARK   67  A    between atoms: _196  and  ZN_384
REMARK   68  A    between atoms: _200  and  _202
REMARK   69  A    between atoms: _202  and  _203
REMARK   70  A    between atoms: _202  and  _205
REMARK   71  A    between atoms: _205  and  _206
REMARK   72  A    between atoms: _209  and  _211
REMARK   73  A    between atoms: _211  and  _212
REMARK   74  A    between atoms: _211  and  _214
REMARK   75  A    between atoms: _217  and  _219
REMARK   76  A    between atoms: _219  and  _220
REMARK   77  A    between atoms: _219  and  _222
REMARK   78  A    between atoms: _222  and  _223
REMARK   79  A    between atoms: _228  and  _230
REMARK   80  A    between atoms: _230  and  _231
REMARK   81  A    between atoms: _230  and  _233
REMARK   82  A    between atoms: _233  and  _234
REMARK   83  A    between atoms: _240  and  _242
REMARK   84  A    between atoms: _242  and  _243
REMARK   85  A    between atoms: _242  and  _245
REMARK   86  A    between atoms: _248  and  _250
REMARK   87  A    between atoms: _250  and  _251
REMARK   88  A    between atoms: _250  and  _253
REMARK   89  A    between atoms: _253  and  _254
REMARK   90  A    between atoms: _257  and  _259
REMARK   91  A    between atoms: _259  and  _260
REMARK   92  A    between atoms: _259  and  _262
REMARK   93  A    between atoms: _265  and  _267
REMARK   94  A    between atoms: _267  and  _268
REMARK   95  A    between atoms: _267  and  _270
REMARK   96  A    between atoms: _270  and  _271
REMARK   97  A    between atoms: _273  and  _275
REMARK   98  A    between atoms: _275  and  _276
REMARK   99  A    between atoms: _275  and  _278
REMARK  100  A    between atoms: _278  and  _279
REMARK  101  A    between atoms: _282  and  _284
REMARK  102  A    between atoms: _284  and  _285
REMARK  103  A    between atoms: _284  and  _287
REMARK  104  A    between atoms: _287  and  _288
REMARK  105  A    between atoms: _291  and  _293
REMARK  106  A    between atoms: _293  and  _294
REMARK  107  A    between atoms: _293  and  _296
REMARK  108  A    between atoms: _296  and  _297
REMARK  109  A    between atoms: _301  and  _302
REMARK  110  A    between atoms: _308  and  _309
REMARK  111  A    between atoms: _314  and  _316
REMARK  112  A    between atoms: _316  and  _317
REMARK  113  A    between atoms: _316  and  _319
REMARK  114  A    between atoms: _319  and  _320
REMARK  115  A    between atoms: _323  and  _325
REMARK  116  A    between atoms: _325  and  _326
REMARK  117  A    between atoms: _325  and  _328
REMARK  118  A    between atoms: _328  and  _329
REMARK  119  A    between atoms: _332  and  _334
REMARK  120  A    between atoms: _334  and  _335
REMARK  121  A    between atoms: _334  and  _337
REMARK  122  A    between atoms: _340  and  _342
REMARK  123  A    between atoms: _342  and  _343
REMARK  124  A    between atoms: _342  and  _345
REMARK  125  A    between atoms: _345  and  _346
REMARK  126  A    between atoms: _356  and  _358
REMARK  127  A    between atoms: _358  and  _359
REMARK  128  A    between atoms: _358  and  _361
REMARK  129  A    between atoms: _361  and  _362
REMARK  130  A    between atoms: _367  and  _369
REMARK  131  A    between atoms: _369  and  _370
REMARK  132  A    between atoms: _369  and  _372
REMARK  133  A    between atoms: _372  and  _373
REMARK  134  A    between atoms: _373  and  _374
REMARK  135  A    between atoms: _374  and  _375
REMARK                            x       y       z     vdW  Elec       q    Type
REMARK                         _______ _______ _______ _____ _____    ______ ____
ROOT
ATOM      1  C   ILE A   1       8.402   7.365  10.829  0.00  0.00    +0.238 C 
ATOM      2  N   GLN A   2       8.571   6.141  11.361  0.00  0.00    -0.298 N 
ATOM      3  H   GLN A   2       8.544   6.010  12.392  0.00  0.00    +0.150 HD
ATOM      4  O   ILE A   1       8.444   7.556   9.607  0.00  0.00    -0.274 OA
ENDROOT
BRANCH   1   5
ATOM      5  CA  ILE A   1       8.059   8.507  11.745  0.00  0.00    +0.145 C 
BRANCH   5   6
ATOM      6  N   ILE A   1       7.168   8.093  12.819  0.00  0.00    -0.238 NA
ATOM      7  H   ILE A   1       7.507   7.405  13.521  0.00  0.00    +0.142 HD
ENDBRANCH   5   6
BRANCH   5   8
ATOM      8  CB  ILE A   1       9.385   9.231  12.252  0.00  0.00    +0.025 C 
ATOM      9  CG2 ILE A   1      10.149   8.417  13.371  0.00  0.00    +0.002 C 
BRANCH   8  10
ATOM     10  CG1 ILE A   1      10.325   9.490  11.033  0.00  0.00    +0.002 C 
ATOM     11  CD1 ILE A   1      11.486  10.500  11.388  0.00  0.00    +0.000 C 
ENDBRANCH   8  10
ENDBRANCH   5   8
ENDBRANCH   1   5
BRANCH   2  12
ATOM     12  CA  GLN A   2       8.793   4.998  10.480  0.00  0.00    +0.137 C 
BRANCH  12  13
ATOM     13  C   GLN A   2       8.505   3.741  11.231  0.00  0.00    +0.227 C 
ATOM     14  O   GLN A   2       8.462   3.759  12.483  0.00  0.00    -0.286 OA
ENDBRANCH  12  13
BRANCH  12  15
ATOM     15  CB  GLN A   2      10.234   4.922   9.890  0.00  0.00    +0.037 C 
BRANCH  15  16
ATOM     16  CG  GLN A   2      11.397   4.997  10.956  0.00  0.00    +0.087 C 
BRANCH  16  17
ATOM     17  CD  GLN A   2      12.055   3.675  11.226  0.00  0.00    +0.219 C 
ATOM     18  NE2 GLN A   2      13.380   3.692  11.397  0.00  0.00    -0.329 N 
ATOM     19 HE21 GLN A   2      13.885   2.814  11.632  0.00  0.00    +0.145 HD
ATOM     20 HE22 GLN A   2      13.906   4.583  11.295  0.00  0.00    +0.145 HD
ATOM     21  OE1 GLN A   2      11.375   2.634  11.336  0.00  0.00    -0.275 OA
ENDBRANCH  16  17
ENDBRANCH  15  16
ENDBRANCH  12  15
ENDBRANCH   2  12
TORSDOF 9
REMARK  Name = ../refined-set-2016/4q7s/4q7s_pocket.pdb
REMARK  135 active torsions:
REMARK  status: ('A' for Active; 'I' for Inactive)
REMARK    1  A    between atoms: _1  and  _3
REMARK    2  A    between atoms: _3  and  _4
REMARK    3  A    between atoms: _3  and  _6
REMARK    4  A    between atoms: _6  and  _7
REMARK    5  A    between atoms: _17  and  _19
REMARK    6  A    between atoms: _19  and  _20
REMARK    7  A    between atoms: _19  and  _22
REMARK    8  A    between atoms: _22  and  _23
REMARK    9  A    between atoms: _28  and  _29
REMARK   10  A    between atoms: _31  and  _33
REMARK   11  A    between atoms: _33  and  _34
REMARK   12  A    between atoms: _33  and  _36
REMARK   13  A    between atoms: _36  and  _37
REMARK   14  A    between atoms: _47  and  _49
REMARK   15  A    between atoms: _49  and  _50
REMARK   16  A    between atoms: _49  and  _52
REMARK   17  A    between atoms: _52  and  _53
REMARK   18  A    between atoms: _55  and  _57
REMARK   19  A    between atoms: _57  and  _58
REMARK   20  A    between atoms: _57  and  _60
REMARK   21  A    between atoms: _60  and  _61
REMARK   22  A    between atoms: _66  and  _68
REMARK   23  A    between atoms: _68  and  _69
REMARK   24  A    between atoms: _68  and  _71
REMARK   25  A    between atoms: _71  and  _72
REMARK   26  A    between atoms: _77  and  _79
REMARK   27  A    between atoms: _79  and  _80
REMARK   28  A    between atoms: _83  and  _85
REMARK   29  A    between atoms: _85  and  _86
REMARK   30  A    between atoms: _85  and  _88
REMARK   31  A    between atoms: _88  and  _89
REMARK   32  A    between atoms: _94  and  _96
REMARK   33  A    between atoms: _96  and  _97
REMARK   34  A    between atoms: _96  and  _99
REMARK   35  A    between atoms: _99  and  _100
REMARK   36  A    between atoms: _103  and  _105
REMARK   37  A    between atoms: _105  and  _106
REMARK   38  A    between atoms: _105  and  _108
REMARK   39  A    between atoms: _108  and  _109
REMARK   40  A    between atoms: _109  and  _110
REMARK   41  A    between atoms: _115  and  _117
REMARK   42  A    between atoms: _128  and  _131
REMARK   43  A    between atoms: _131  and  _132
REMARK   44  A    between atoms: _140  and  _141
REMARK   45  A    between atoms: _149  and  _151
REMARK   46  A    between atoms: _151  and  _152
REMARK   47  A    between atoms: _151  and  _154
REMARK   48  A    between atoms: _154  and  _155
REMARK   49  A    between atoms: _155  and  _156
REMARK   50  A    between atoms: _159  and  _161
REMARK   51  A    between atoms: _161  and  _162
REMARK   52  A    between atoms: _161  and  _164
REMARK   53  A    between atoms: _164  and  _165
REMARK   54  A    between atoms: _170  and  _172
REMARK   55  A    between atoms: _172  and  _173
REMARK   56  A    between atoms: _172  and  _175
REMARK   57  A    between atoms: _175  and  _176
REMARK   58  A    between atoms: _176  and  _177
REMARK   59  A    between atoms: _180  and  _182
REMARK   60  A    between atoms: _182  and  _183
REMARK   61  A    between atoms: _182  and  _185
REMARK   62  A    between atoms: _185  and  _186
REMARK   63  A    between atoms: _189  and  _191
REMARK   64  A    between atoms: _191  and  _192
REMARK   65  A    between atoms: _191  and  _194
REMARK   66  A    between atoms: _194  and  _195
REMARK   67  A    between atoms: _196  and  ZN_384
REMARK   68  A    between atoms: _200  and  _202
REMARK   69  A    between atoms: _202  and  _203
REMARK   70  A    between atoms: _202  and  _205
REMARK   71  A    between atoms: _205  and  _206
REMARK   72  A    between atoms: _209  and  _211
REMARK   73  A    between atoms: _211  and  _212
REMARK   74  A    between atoms: _211  and  _214
REMARK   75  A    between atoms: _217  and  _219
REMARK   76  A    between atoms: _219  and  _220
REMARK   77  A    between atoms: _219  and  _222
REMARK   78  A    between atoms: _222  and  _223
REMARK   79  A    between atoms: _228  and  _230
REMARK   80  A    between atoms: _230  and  _231
REMARK   81  A    between atoms: _230  and  _233
REMARK   82  A    between atoms: _233  and  _234
REMARK   83  A    between atoms: _240  and  _242
REMARK   84  A    between atoms: _242  and  _243
REMARK   85  A    between atoms: _242  and  _245
REMARK   86  A    between atoms: _248  and  _250
REMARK   87  A    between atoms: _250  and  _251
REMARK   88  A    between atoms: _250  and  _253
REMARK   89  A    between atoms: _253  and  _254
REMARK   90  A    between atoms: _257  and  _259
REMARK   91  A    between atoms: _259  and  _260
REMARK   92  A    between atoms: _259  and  _262
REMARK   93  A    between atoms: _265  and  _267
REMARK   94  A    between atoms: _267  and  _268
REMARK   95  A    between atoms: _267  and  _270
REMARK   96  A    between atoms: _270  and  _271
REMARK   97  A    between atoms: _273  and  _275
REMARK   98  A    between atoms: _275  and  _276
REMARK   99  A    between atoms: _275  and  _278
REMARK  100  A    between atoms: _278  and  _279
REMARK  101  A    between atoms: _282  and  _284
REMARK  102  A    between atoms: _284  and  _285
REMARK  103  A    between atoms: _284  and  _287
REMARK  104  A    between atoms: _287  and  _288
REMARK  105  A    between atoms: _291  and  _293
REMARK  106  A    between atoms: _293  and  _294
REMARK  107  A    between atoms: _293  and  _296
REMARK  108  A    between atoms: _296  and  _297
REMARK  109  A    between atoms: _301  and  _302
REMARK  110  A    between atoms: _308  and  _309
REMARK  111  A    between atoms: _314  and  _316
REMARK  112  A    between atoms: _316  and  _317
REMARK  113  A    between atoms: _316  and  _319
REMARK  114  A    between atoms: _319  and  _320
REMARK  115  A    between atoms: _323  and  _325
REMARK  116  A    between atoms: _325  and  _326
REMARK  117  A    between atoms: _325  and  _328
REMARK  118  A    between atoms: _328  and  _329
REMARK  119  A    between atoms: _332  and  _334
REMARK  120  A    between atoms: _334  and  _335
REMARK  121  A    between atoms: _334  and  _337
REMARK  122  A    between atoms: _340  and  _342
REMARK  123  A    between atoms: _342  and  _343
REMARK  124  A    between atoms: _342  and  _345
REMARK  125  A    between atoms: _345  and  _346
REMARK  126  A    between atoms: _356  and  _358
REMARK  127  A    between atoms: _358  and  _359
REMARK  128  A    between atoms: _358  and  _361
REMARK  129  A    between atoms: _361  and  _362
REMARK  130  A    between atoms: _367  and  _369
REMARK  131  A    between atoms: _369  and  _370
REMARK  132  A    between atoms: _369  and  _372
REMARK  133  A    between atoms: _372  and  _373
REMARK  134  A    between atoms: _373  and  _374
REMARK  135  A    between atoms: _374  and  _375
REMARK                            x       y       z     vdW  Elec       q    Type
REMARK                         _______ _______ _______ _____ _____    ______ ____
ROOT
ATOM      1  C   UNK A   3       9.369  -1.518  15.638  0.00  0.00    +0.000 C 
ENDROOT
BRANCH   1   2
ATOM      2  C   UNK A   3       8.728  -0.347  14.993  0.00  0.00    +0.000 C 
ATOM      3  N   LEU A   4       7.722   0.219  15.653  0.00  0.00    +0.000 N 
ATOM      4  H   LEU A   4       7.406  -0.201  16.550  0.00  0.00    +0.000 HD
ATOM      5  O   UNK A   3       9.165   0.068  13.929  0.00  0.00    +0.000 OA
BRANCH   3   6
ATOM      6  CA  LEU A   4       7.053   1.407  15.156  0.00  0.00    +0.000 C 
BRANCH   6   7
ATOM      7  C   LEU A   4       7.660   2.551  15.979  0.00  0.00    +0.000 C 
ATOM      8  O   LEU A   4       7.488   2.642  17.194  0.00  0.00    +0.000 OA
ATOM      9  N   VAL A   5       8.458   3.331  15.292  0.00  0.00    +0.000 N 
ATOM     10  H   VAL A   5       8.565   3.151  14.273  0.00  0.00    +0.000 HD
BRANCH   9  11
ATOM     11  CA  VAL A   5       9.223   4.465  15.894  0.00  0.00    +0.000 C 
BRANCH  11  12
ATOM     12  C   VAL A   5       8.469   5.784  15.958  0.00  0.00    +0.000 C 
ATOM     13  N   HIS A   6       8.424   6.372  17.169  0.00  0.00    +0.000 N 
ATOM     14  H   HIS A   6       8.889   5.915  17.979  0.00  0.00    +0.000 HD
ATOM     15  O   VAL A   5       7.953   6.288  14.925  0.00  0.00    +0.000 OA
BRANCH  13  16
ATOM     16  CA  HIS A   6       7.738   7.629  17.358  0.00  0.00    +0.000 C 
BRANCH  16  17
ATOM     17  C   HIS A   6       8.615   8.637  18.075  0.00  0.00    +0.000 C 
ATOM     18  O   HIS A   6       9.327   8.244  18.968  0.00  0.00    +0.000 OA
ENDBRANCH  16  17
BRANCH  16  19
ATOM     19  CB  HIS A   6       6.439   7.431  18.151  0.00  0.00    +0.000 C 
BRANCH  19  20
ATOM     20  CG  HIS A   6       5.532   6.335  17.670  0.00  0.00    +0.000 A 
ATOM     21  ND1 HIS A   6       5.786   4.992  17.900  0.00  0.00    +0.000 NA
ATOM     22  CE1 HIS A   6       4.757   4.265  17.462  0.00  0.00    +0.000 A 
ATOM     23  NE2 HIS A   6       3.840   5.085  16.955  0.00  0.00    +0.000 NA
ATOM     24  CD2 HIS A   6       4.302   6.389  17.074  0.00  0.00    +0.000 A 
ENDBRANCH  19  20
ENDBRANCH  16  19
ENDBRANCH  13  16
ENDBRANCH  11  12
BRANCH  11  25
ATOM     25  CB  VAL A   5      10.547   4.648  15.153  0.00  0.00    +0.000 C 
ATOM     26  CG2 VAL A   5      11.426   5.674  15.804  0.00  0.00    +0.000 C 
ATOM     27  CG1 VAL A   5      11.231   3.324  15.039  0.00  0.00    +0.000 C 
ENDBRANCH  11  25
ENDBRANCH   9  11
ENDBRANCH   6   7
BRANCH   6  28
ATOM     28  CB  LEU A   4       5.530   1.290  15.332  0.00  0.00    +0.000 C 
BRANCH  28  29
ATOM     29  CG  LEU A   4       4.869   0.178  14.514  0.00  0.00    +0.000 C 
ATOM     30  CD2 LEU A   4       4.034  -0.790  15.369  0.00  0.00    +0.000 C 
ATOM     31  CD1 LEU A   4       3.974   0.921  13.532  0.00  0.00    +0.000 C 
ENDBRANCH  28  29
ENDBRANCH   6  28
ENDBRANCH   3   6
ENDBRANCH   1   2
BRANCH   1  32
ATOM     32  N   UNK A   3       9.113  -2.717  14.855  0.00  0.00    +0.000 N 
ATOM     33  C   LEU A   2       8.479  -3.775  15.351  0.00  0.00    +0.000 C 
ATOM     34  O   LEU A   2       8.109  -3.859  16.486  0.00  0.00    +0.000 OA
ATOM     35  H   UNK A   3       9.439  -2.748  13.868  0.00  0.00    +0.000 HD
BRANCH  33  36
ATOM     36  CA  LEU A   2       8.235  -4.932  14.368  0.00  0.00    +0.000 C 
BRANCH  36  37
ATOM     37  N   LEU A   2       8.616  -6.160  15.033  0.00  0.00    +0.000 N 
ATOM     38  H   LEU A   2       7.904  -6.606  15.646  0.00  0.00    +0.000 HD
ATOM     39  C   UNK A   1       9.801  -6.773  14.930  0.00  0.00    +0.000 C 
ATOM     40  O   UNK A   1      10.724  -6.384  14.234  0.00  0.00    +0.000 OA
BRANCH  39  41
ATOM     41  C   UNK A   1       9.973  -8.053  15.734  0.00  0.00    +0.000 C 
BRANCH  41  42
ATOM     42  N   UNK A   1      10.551  -9.053  14.910  0.00  0.00    +0.000 NA
ATOM     43  H   UNK A   1      11.278  -8.791  14.214  0.00  0.00    +0.000 HD
ENDBRANCH  41  42
BRANCH  41  44
ATOM     44  C   UNK A   1      10.909  -7.887  16.958  0.00  0.00    +0.000 C 
BRANCH  44  45
ATOM     45  C   UNK A   1      10.487  -6.738  17.942  0.00  0.00    +0.000 C 
BRANCH  45  46
ATOM     46  C   UNK A   1      11.348  -6.802  19.170  0.00  0.00    +0.000 C 
ATOM     47  O   UNK A   1      11.472  -5.776  19.843  0.00  0.00    +0.000 OA
ATOM     48  O   UNK A   1      11.885  -7.890  19.489  0.00  0.00    +0.000 OA
ENDBRANCH  45  46
ENDBRANCH  44  45
ENDBRANCH  41  44
ENDBRANCH  39  41
ENDBRANCH  36  37
BRANCH  36  49
ATOM     49  CB  LEU A   2       6.728  -5.006  13.969  0.00  0.00    +0.000 C 
BRANCH  49  50
ATOM     50  CG  LEU A   2       5.969  -3.703  13.602  0.00  0.00    +0.000 C 
ATOM     51  CD2 LEU A   2       4.452  -4.047  13.355  0.00  0.00    +0.000 C 
ATOM     52  CD1 LEU A   2       6.533  -3.190  12.324  0.00  0.00    +0.000 C 
ENDBRANCH  49  50
ENDBRANCH  36  49
ENDBRANCH  33  36
ENDBRANCH   1  32
BRANCH   1  53
ATOM     53  C   UNK A   3      10.891  -1.273  15.771  0.00  0.00    +0.000 C 
BRANCH  53  58
ATOM     54  N   UNK A   3      12.950  -2.487  16.704  0.00  0.00    +0.000 N 
ATOM     55  C   UNK A   3      13.229  -3.408  17.613  0.00  0.00    +0.000 A 
ATOM     56  N   UNK A   3      12.093  -3.894  18.086  0.00  0.00    +0.000 NA
ATOM     57  C   UNK A   3      11.048  -3.190  17.538  0.00  0.00    +0.000 A 
ATOM     58  C   UNK A   3      11.578  -2.298  16.658  0.00  0.00    +0.000 A 
BRANCH  54  72
ATOM     59  C   UNK A   1      10.748  -1.522  10.431  0.00  0.00    +0.000 C 
ATOM     60  C   UNK A   1      10.678  -2.816  11.170  0.00  0.00    +0.000 C 
ATOM     61  O   UNK A   1      10.060  -2.883  12.212  0.00  0.00    +0.000 OA
ATOM     62  N   LEU A   2      11.438  -3.803  10.707  0.00  0.00    +0.000 N 
ATOM     63  CA  LEU A   2      11.457  -5.055  11.429  0.00  0.00    +0.000 C 
ATOM     64  C   LEU A   2      12.870  -5.522  11.602  0.00  0.00    +0.000 C 
ATOM     65  N   UNK A   3      13.050  -6.472  12.529  0.00  0.00    +0.000 N 
ATOM     66  H   UNK A   3      12.284  -6.654  13.209  0.00  0.00    +0.000 HD
ATOM     67  C   UNK A   3      14.272  -7.262  12.627  0.00  0.00    +0.000 C 
ATOM     68  C   UNK A   3      14.962  -7.038  13.987  0.00  0.00    +0.000 C 
ATOM     69  C   UNK A   3      15.224  -5.585  14.315  0.00  0.00    +0.000 A 
ATOM     70  C   UNK A   3      14.409  -4.588  14.733  0.00  0.00    +0.000 A 
ATOM     71  N   UNK A   3      15.187  -3.468  14.888  0.00  0.00    +0.000 N 
ATOM     72 ZN   UNK A   3      14.540  -1.579  15.483  0.00  0.00    +0.000 Zn
ATOM     73  N   UNK A   1      13.626  -0.753  13.793  0.00  0.00    +0.000 N 
ATOM     74  C   UNK A   1      13.101   0.454  13.592  0.00  0.00    +0.000 A 
ATOM     75  N   UNK A   1      12.568   0.491  12.380  0.00  0.00    +0.000 NA
ATOM     76  C   UNK A   1      12.750  -0.745  11.775  0.00  0.00    +0.000 A 
ATOM     77  C   UNK A   1      13.396  -1.522  12.678  0.00  0.00    +0.000 A 
ATOM     78  C   UNK A   3      16.441  -3.765  14.585  0.00  0.00    +0.000 A 
ATOM     79  N   UNK A   3      16.485  -5.030  14.209  0.00  0.00    +0.000 NA
ATOM     80  O   LEU A   2      13.783  -5.090  10.844  0.00  0.00    +0.000 OA
ATOM     81  H   LEU A   2      12.006  -3.677   9.845  0.00  0.00    +0.000 HD
ATOM     82  C   UNK A   1      12.229  -1.074  10.406  0.00  0.00    +0.000 C 
BRANCH  59  83
ATOM     83  N   UNK A   1       9.938  -0.500  11.108  0.00  0.00    +0.000 NA
ATOM     84  H   UNK A   1       9.820  -0.514  12.141  0.00  0.00    +0.000 HD
ENDBRANCH  59  83
BRANCH  67  85
ATOM     85  C   UNK A   3      13.835  -8.710  12.566  0.00  0.00    +0.000 C 
ATOM     86  O   UNK A   3      12.815  -9.068  13.120  0.00  0.00    +0.000 OA
ENDBRANCH  67  85
BRANCH  63  87
ATOM     87  CB  LEU A   2      10.751  -6.150  10.591  0.00  0.00    +0.000 C 
BRANCH  87  88
ATOM     88  CG  LEU A   2       9.290  -5.877  10.284  0.00  0.00    +0.000 A 
ATOM     89  CD2 LEU A   2       8.251  -6.611  10.923  0.00  0.00    +0.000 A 
ATOM     90  CE2 LEU A   2       6.905  -6.401  10.520  0.00  0.00    +0.000 A 
ATOM     91  CZ  LEU A   2       6.606  -5.481   9.450  0.00  0.00    +0.000 A 
ATOM     92  CE1 LEU A   2       7.610  -4.846   8.797  0.00  0.00    +0.000 A 
ATOM     93  CD1 LEU A   2       8.947  -5.048   9.194  0.00  0.00    +0.000 A 
ENDBRANCH  87  88
ENDBRANCH  63  87
ENDBRANCH  54  72
ENDBRANCH  53  58
ENDBRANCH   1  53
TORSDOF 29
REMARK  Name = ../refined-set-2016/4q7s/4q7s_pocket.pdb
REMARK  135 active torsions:
REMARK  status: ('A' for Active; 'I' for Inactive)
REMARK    1  A    between atoms: _1  and  _3
REMARK    2  A    between atoms: _3  and  _4
REMARK    3  A    between atoms: _3  and  _6
REMARK    4  A    between atoms: _6  and  _7
REMARK    5  A    between atoms: _17  and  _19
REMARK    6  A    between atoms: _19  and  _20
REMARK    7  A    between atoms: _19  and  _22
REMARK    8  A    between atoms: _22  and  _23
REMARK    9  A    between atoms: _28  and  _29
REMARK   10  A    between atoms: _31  and  _33
REMARK   11  A    between atoms: _33  and  _34
REMARK   12  A    between atoms: _33  and  _36
REMARK   13  A    between atoms: _36  and  _37
REMARK   14  A    between atoms: _47  and  _49
REMARK   15  A    between atoms: _49  and  _50
REMARK   16  A    between atoms: _49  and  _52
REMARK   17  A    between atoms: _52  and  _53
REMARK   18  A    between atoms: _55  and  _57
REMARK   19  A    between atoms: _57  and  _58
REMARK   20  A    between atoms: _57  and  _60
REMARK   21  A    between atoms: _60  and  _61
REMARK   22  A    between atoms: _66  and  _68
REMARK   23  A    between atoms: _68  and  _69
REMARK   24  A    between atoms: _68  and  _71
REMARK   25  A    between atoms: _71  and  _72
REMARK   26  A    between atoms: _77  and  _79
REMARK   27  A    between atoms: _79  and  _80
REMARK   28  A    between atoms: _83  and  _85
REMARK   29  A    between atoms: _85  and  _86
REMARK   30  A    between atoms: _85  and  _88
REMARK   31  A    between atoms: _88  and  _89
REMARK   32  A    between atoms: _94  and  _96
REMARK   33  A    between atoms: _96  and  _97
REMARK   34  A    between atoms: _96  and  _99
REMARK   35  A    between atoms: _99  and  _100
REMARK   36  A    between atoms: _103  and  _105
REMARK   37  A    between atoms: _105  and  _106
REMARK   38  A    between atoms: _105  and  _108
REMARK   39  A    between atoms: _108  and  _109
REMARK   40  A    between atoms: _109  and  _110
REMARK   41  A    between atoms: _115  and  _117
REMARK   42  A    between atoms: _128  and  _131
REMARK   43  A    between atoms: _131  and  _132
REMARK   44  A    between atoms: _140  and  _141
REMARK   45  A    between atoms: _149  and  _151
REMARK   46  A    between atoms: _151  and  _152
REMARK   47  A    between atoms: _151  and  _154
REMARK   48  A    between atoms: _154  and  _155
REMARK   49  A    between atoms: _155  and  _156
REMARK   50  A    between atoms: _159  and  _161
REMARK   51  A    between atoms: _161  and  _162
REMARK   52  A    between atoms: _161  and  _164
REMARK   53  A    between atoms: _164  and  _165
REMARK   54  A    between atoms: _170  and  _172
REMARK   55  A    between atoms: _172  and  _173
REMARK   56  A    between atoms: _172  and  _175
REMARK   57  A    between atoms: _175  and  _176
REMARK   58  A    between atoms: _176  and  _177
REMARK   59  A    between atoms: _180  and  _182
REMARK   60  A    between atoms: _182  and  _183
REMARK   61  A    between atoms: _182  and  _185
REMARK   62  A    between atoms: _185  and  _186
REMARK   63  A    between atoms: _189  and  _191
REMARK   64  A    between atoms: _191  and  _192
REMARK   65  A    between atoms: _191  and  _194
REMARK   66  A    between atoms: _194  and  _195
REMARK   67  A    between atoms: _196  and  ZN_384
REMARK   68  A    between atoms: _200  and  _202
REMARK   69  A    between atoms: _202  and  _203
REMARK   70  A    between atoms: _202  and  _205
REMARK   71  A    between atoms: _205  and  _206
REMARK   72  A    between atoms: _209  and  _211
REMARK   73  A    between atoms: _211  and  _212
REMARK   74  A    between atoms: _211  and  _214
REMARK   75  A    between atoms: _217  and  _219
REMARK   76  A    between atoms: _219  and  _220
REMARK   77  A    between atoms: _219  and  _222
REMARK   78  A    between atoms: _222  and  _223
REMARK   79  A    between atoms: _228  and  _230
REMARK   80  A    between atoms: _230  and  _231
REMARK   81  A    between atoms: _230  and  _233
REMARK   82  A    between atoms: _233  and  _234
REMARK   83  A    between atoms: _240  and  _242
REMARK   84  A    between atoms: _242  and  _243
REMARK   85  A    between atoms: _242  and  _245
REMARK   86  A    between atoms: _248  and  _250
REMARK   87  A    between atoms: _250  and  _251
REMARK   88  A    between atoms: _250  and  _253
REMARK   89  A    between atoms: _253  and  _254
REMARK   90  A    between atoms: _257  and  _259
REMARK   91  A    between atoms: _259  and  _260
REMARK   92  A    between atoms: _259  and  _262
REMARK   93  A    between atoms: _265  and  _267
REMARK   94  A    between atoms: _267  and  _268
REMARK   95  A    between atoms: _267  and  _270
REMARK   96  A    between atoms: _270  and  _271
REMARK   97  A    between atoms: _273  and  _275
REMARK   98  A    between atoms: _275  and  _276
REMARK   99  A    between atoms: _275  and  _278
REMARK  100  A    between atoms: _278  and  _279
REMARK  101  A    between atoms: _282  and  _284
REMARK  102  A    between atoms: _284  and  _285
REMARK  103  A    between atoms: _284  and  _287
REMARK  104  A    between atoms: _287  and  _288
REMARK  105  A    between atoms: _291  and  _293
REMARK  106  A    between atoms: _293  and  _294
REMARK  107  A    between atoms: _293  and  _296
REMARK  108  A    between atoms: _296  and  _297
REMARK  109  A    between atoms: _301  and  _302
REMARK  110  A    between atoms: _308  and  _309
REMARK  111  A    between atoms: _314  and  _316
REMARK  112  A    between atoms: _316  and  _317
REMARK  113  A    between atoms: _316  and  _319
REMARK  114  A    between atoms: _319  and  _320
REMARK  115  A    between atoms: _323  and  _325
REMARK  116  A    between atoms: _325  and  _326
REMARK  117  A    between atoms: _325  and  _328
REMARK  118  A    between atoms: _328  and  _329
REMARK  119  A    between atoms: _332  and  _334
REMARK  120  A    between atoms: _334  and  _335
REMARK  121  A    between atoms: _334  and  _337
REMARK  122  A    between atoms: _340  and  _342
REMARK  123  A    between atoms: _342  and  _343
REMARK  124  A    between atoms: _342  and  _345
REMARK  125  A    between atoms: _345  and  _346
REMARK  126  A    between atoms: _356  and  _358
REMARK  127  A    between atoms: _358  and  _359
REMARK  128  A    between atoms: _358  and  _361
REMARK  129  A    between atoms: _361  and  _362
REMARK  130  A    between atoms: _367  and  _369
REMARK  131  A    between atoms: _369  and  _370
REMARK  132  A    between atoms: _369  and  _372
REMARK  133  A    between atoms: _372  and  _373
REMARK  134  A    between atoms: _373  and  _374
REMARK  135  A    between atoms: _374  and  _375
REMARK                            x       y       z     vdW  Elec       q    Type
REMARK                         _______ _______ _______ _____ _____    ______ ____
ROOT
ATOM      1  C   GLU A   1      15.054  -8.747  21.116  0.00  0.00    +0.238 C 
ATOM      2  O   GLU A   1      15.825  -9.312  21.896  0.00  0.00    -0.274 OA
ATOM      3  N   HIS A   2      13.861  -8.327  21.499  0.00  0.00    -0.298 N 
ATOM      4  H   HIS A   2      13.266  -7.757  20.864  0.00  0.00    +0.150 HD
ENDROOT
BRANCH   1   5
ATOM      5  CA  GLU A   1      15.426  -8.568  19.677  0.00  0.00    +0.145 C 
BRANCH   5   6
ATOM      6  N   GLU A   1      14.401  -9.233  18.851  0.00  0.00    -0.238 NA
ATOM      7  H   GLU A   1      13.567  -8.680  18.566  0.00  0.00    +0.142 HD
ENDBRANCH   5   6
BRANCH   5   8
ATOM      8  CB  GLU A   1      15.454  -7.089  19.246  0.00  0.00    +0.038 C 
BRANCH   8   9
ATOM      9  CG  GLU A   1      15.996  -7.084  17.809  0.00  0.00    +0.116 C 
BRANCH   9  10
ATOM     10  CD  GLU A   1      16.626  -5.784  17.434  0.00  0.00    +0.365 C 
ATOM     11  OE2 GLU A   1      15.969  -4.710  17.581  0.00  0.00    -0.246 OA
ATOM     12  OE1 GLU A   1      17.807  -5.856  17.027  0.00  0.00    -0.246 OA
ENDBRANCH   9  10
ENDBRANCH   8   9
ENDBRANCH   5   8
ENDBRANCH   1   5
BRANCH   3  13
ATOM     13  CA  HIS A   2      13.405  -8.682  22.826  0.00  0.00    +0.143 C 
BRANCH  13  14
ATOM     14  C   HIS A   2      13.037 -10.134  22.901  0.00  0.00    +0.227 C 
ATOM     15  O   HIS A   2      12.700 -10.727  21.881  0.00  0.00    -0.286 OA
ENDBRANCH  13  14
BRANCH  13  16
ATOM     16  CB  HIS A   2      12.229  -7.857  23.269  0.00  0.00    +0.075 C 
BRANCH  16  17
ATOM     17  CG  HIS A   2      12.569  -6.415  23.395  0.00  0.00    +0.082 A 
ATOM     18  CD2 HIS A   2      13.011  -5.695  24.459  0.00  0.00    +0.115 A 
ATOM     19  NE2 HIS A   2      13.203  -4.413  24.019  0.00  0.00    -0.221 NA
ATOM     20  CE1 HIS A   2      12.933  -4.354  22.726  0.00  0.00    +0.199 A 
ATOM     21  ND1 HIS A   2      12.544  -5.554  22.330  0.00  0.00    -0.227 NA
ENDBRANCH  16  17
ENDBRANCH  13  16
ENDBRANCH   3  13
TORSDOF 9
REMARK  Name = ../refined-set-2016/4q7s/4q7s_pocket.pdb
REMARK  135 active torsions:
REMARK  status: ('A' for Active; 'I' for Inactive)
REMARK    1  A    between atoms: _1  and  _3
REMARK    2  A    between atoms: _3  and  _4
REMARK    3  A    between atoms: _3  and  _6
REMARK    4  A    between atoms: _6  and  _7
REMARK    5  A    between atoms: _17  and  _19
REMARK    6  A    between atoms: _19  and  _20
REMARK    7  A    between atoms: _19  and  _22
REMARK    8  A    between atoms: _22  and  _23
REMARK    9  A    between atoms: _28  and  _29
REMARK   10  A    between atoms: _31  and  _33
REMARK   11  A    between atoms: _33  and  _34
REMARK   12  A    between atoms: _33  and  _36
REMARK   13  A    between atoms: _36  and  _37
REMARK   14  A    between atoms: _47  and  _49
REMARK   15  A    between atoms: _49  and  _50
REMARK   16  A    between atoms: _49  and  _52
REMARK   17  A    between atoms: _52  and  _53
REMARK   18  A    between atoms: _55  and  _57
REMARK   19  A    between atoms: _57  and  _58
REMARK   20  A    between atoms: _57  and  _60
REMARK   21  A    between atoms: _60  and  _61
REMARK   22  A    between atoms: _66  and  _68
REMARK   23  A    between atoms: _68  and  _69
REMARK   24  A    between atoms: _68  and  _71
REMARK   25  A    between atoms: _71  and  _72
REMARK   26  A    between atoms: _77  and  _79
REMARK   27  A    between atoms: _79  and  _80
REMARK   28  A    between atoms: _83  and  _85
REMARK   29  A    between atoms: _85  and  _86
REMARK   30  A    between atoms: _85  and  _88
REMARK   31  A    between atoms: _88  and  _89
REMARK   32  A    between atoms: _94  and  _96
REMARK   33  A    between atoms: _96  and  _97
REMARK   34  A    between atoms: _96  and  _99
REMARK   35  A    between atoms: _99  and  _100
REMARK   36  A    between atoms: _103  and  _105
REMARK   37  A    between atoms: _105  and  _106
REMARK   38  A    between atoms: _105  and  _108
REMARK   39  A    between atoms: _108  and  _109
REMARK   40  A    between atoms: _109  and  _110
REMARK   41  A    between atoms: _115  and  _117
REMARK   42  A    between atoms: _128  and  _131
REMARK   43  A    between atoms: _131  and  _132
REMARK   44  A    between atoms: _140  and  _141
REMARK   45  A    between atoms: _149  and  _151
REMARK   46  A    between atoms: _151  and  _152
REMARK   47  A    between atoms: _151  and  _154
REMARK   48  A    between atoms: _154  and  _155
REMARK   49  A    between atoms: _155  and  _156
REMARK   50  A    between atoms: _159  and  _161
REMARK   51  A    between atoms: _161  and  _162
REMARK   52  A    between atoms: _161  and  _164
REMARK   53  A    between atoms: _164  and  _165
REMARK   54  A    between atoms: _170  and  _172
REMARK   55  A    between atoms: _172  and  _173
REMARK   56  A    between atoms: _172  and  _175
REMARK   57  A    between atoms: _175  and  _176
REMARK   58  A    between atoms: _176  and  _177
REMARK   59  A    between atoms: _180  and  _182
REMARK   60  A    between atoms: _182  and  _183
REMARK   61  A    between atoms: _182  and  _185
REMARK   62  A    between atoms: _185  and  _186
REMARK   63  A    between atoms: _189  and  _191
REMARK   64  A    between atoms: _191  and  _192
REMARK   65  A    between atoms: _191  and  _194
REMARK   66  A    between atoms: _194  and  _195
REMARK   67  A    between atoms: _196  and  ZN_384
REMARK   68  A    between atoms: _200  and  _202
REMARK   69  A    between atoms: _202  and  _203
REMARK   70  A    between atoms: _202  and  _205
REMARK   71  A    between atoms: _205  and  _206
REMARK   72  A    between atoms: _209  and  _211
REMARK   73  A    between atoms: _211  and  _212
REMARK   74  A    between atoms: _211  and  _214
REMARK   75  A    between atoms: _217  and  _219
REMARK   76  A    between atoms: _219  and  _220
REMARK   77  A    between atoms: _219  and  _222
REMARK   78  A    between atoms: _222  and  _223
REMARK   79  A    between atoms: _228  and  _230
REMARK   80  A    between atoms: _230  and  _231
REMARK   81  A    between atoms: _230  and  _233
REMARK   82  A    between atoms: _233  and  _234
REMARK   83  A    between atoms: _240  and  _242
REMARK   84  A    between atoms: _242  and  _243
REMARK   85  A    between atoms: _242  and  _245
REMARK   86  A    between atoms: _248  and  _250
REMARK   87  A    between atoms: _250  and  _251
REMARK   88  A    between atoms: _250  and  _253
REMARK   89  A    between atoms: _253  and  _254
REMARK   90  A    between atoms: _257  and  _259
REMARK   91  A    between atoms: _259  and  _260
REMARK   92  A    between atoms: _259  and  _262
REMARK   93  A    between atoms: _265  and  _267
REMARK   94  A    between atoms: _267  and  _268
REMARK   95  A    between atoms: _267  and  _270
REMARK   96  A    between atoms: _270  and  _271
REMARK   97  A    between atoms: _273  and  _275
REMARK   98  A    between atoms: _275  and  _276
REMARK   99  A    between atoms: _275  and  _278
REMARK  100  A    between atoms: _278  and  _279
REMARK  101  A    between atoms: _282  and  _284
REMARK  102  A    between atoms: _284  and  _285
REMARK  103  A    between atoms: _284  and  _287
REMARK  104  A    between atoms: _287  and  _288
REMARK  105  A    between atoms: _291  and  _293
REMARK  106  A    between atoms: _293  and  _294
REMARK  107  A    between atoms: _293  and  _296
REMARK  108  A    between atoms: _296  and  _297
REMARK  109  A    between atoms: _301  and  _302
REMARK  110  A    between atoms: _308  and  _309
REMARK  111  A    between atoms: _314  and  _316
REMARK  112  A    between atoms: _316  and  _317
REMARK  113  A    between atoms: _316  and  _319
REMARK  114  A    between atoms: _319  and  _320
REMARK  115  A    between atoms: _323  and  _325
REMARK  116  A    between atoms: _325  and  _326
REMARK  117  A    between atoms: _325  and  _328
REMARK  118  A    between atoms: _328  and  _329
REMARK  119  A    between atoms: _332  and  _334
REMARK  120  A    between atoms: _334  and  _335
REMARK  121  A    between atoms: _334  and  _337
REMARK  122  A    between atoms: _340  and  _342
REMARK  123  A    between atoms: _342  and  _343
REMARK  124  A    between atoms: _342  and  _345
REMARK  125  A    between atoms: _345  and  _346
REMARK  126  A    between atoms: _356  and  _358
REMARK  127  A    between atoms: _358  and  _359
REMARK  128  A    between atoms: _358  and  _361
REMARK  129  A    between atoms: _361  and  _362
REMARK  130  A    between atoms: _367  and  _369
REMARK  131  A    between atoms: _369  and  _370
REMARK  132  A    between atoms: _369  and  _372
REMARK  133  A    between atoms: _372  and  _373
REMARK  134  A    between atoms: _373  and  _374
REMARK  135  A    between atoms: _374  and  _375
REMARK                            x       y       z     vdW  Elec       q    Type
REMARK                         _______ _______ _______ _____ _____    ______ ____
ROOT
ATOM      1  CB  PHE A   1      13.301  12.627  13.934  0.00  0.00    +0.051 C 
ENDROOT
BRANCH   1   2
ATOM      2  CG  PHE A   1      13.984  11.343  14.234  0.00  0.00    -0.020 A 
ATOM      3  CD2 PHE A   1      13.318  10.328  14.917  0.00  0.00    -0.004 A 
ATOM      4  CE2 PHE A   1      13.953   9.135  15.207  0.00  0.00    -0.000 A 
ATOM      5  CZ  PHE A   1      15.291   8.939  14.847  0.00  0.00    -0.000 A 
ATOM      6  CE1 PHE A   1      15.967   9.946  14.192  0.00  0.00    -0.000 A 
ATOM      7  CD1 PHE A   1      15.315  11.137  13.887  0.00  0.00    -0.004 A 
ENDBRANCH   1   2
BRANCH   1   8
ATOM      8  CA  PHE A   1      13.301  13.599  15.112  0.00  0.00    +0.137 C 
BRANCH   8   9
ATOM      9  N   PHE A   1      12.622  14.844  14.770  0.00  0.00    -0.239 NA
ATOM     10  H   PHE A   1      12.250  14.969  13.807  0.00  0.00    +0.142 HD
ENDBRANCH   8   9
BRANCH   8  11
ATOM     11  C   PHE A   1      14.739  13.861  15.508  0.00  0.00    +0.224 C 
ATOM     12  O   PHE A   1      15.260  13.273  16.473  0.00  0.00    -0.287 OA
ENDBRANCH   8  11
ENDBRANCH   1   8
TORSDOF 4
REMARK  Name = ../refined-set-2016/4q7s/4q7s_pocket.pdb
REMARK  135 active torsions:
REMARK  status: ('A' for Active; 'I' for Inactive)
REMARK    1  A    between atoms: _1  and  _3
REMARK    2  A    between atoms: _3  and  _4
REMARK    3  A    between atoms: _3  and  _6
REMARK    4  A    between atoms: _6  and  _7
REMARK    5  A    between atoms: _17  and  _19
REMARK    6  A    between atoms: _19  and  _20
REMARK    7  A    between atoms: _19  and  _22
REMARK    8  A    between atoms: _22  and  _23
REMARK    9  A    between atoms: _28  and  _29
REMARK   10  A    between atoms: _31  and  _33
REMARK   11  A    between atoms: _33  and  _34
REMARK   12  A    between atoms: _33  and  _36
REMARK   13  A    between atoms: _36  and  _37
REMARK   14  A    between atoms: _47  and  _49
REMARK   15  A    between atoms: _49  and  _50
REMARK   16  A    between atoms: _49  and  _52
REMARK   17  A    between atoms: _52  and  _53
REMARK   18  A    between atoms: _55  and  _57
REMARK   19  A    between atoms: _57  and  _58
REMARK   20  A    between atoms: _57  and  _60
REMARK   21  A    between atoms: _60  and  _61
REMARK   22  A    between atoms: _66  and  _68
REMARK   23  A    between atoms: _68  and  _69
REMARK   24  A    between atoms: _68  and  _71
REMARK   25  A    between atoms: _71  and  _72
REMARK   26  A    between atoms: _77  and  _79
REMARK   27  A    between atoms: _79  and  _80
REMARK   28  A    between atoms: _83  and  _85
REMARK   29  A    between atoms: _85  and  _86
REMARK   30  A    between atoms: _85  and  _88
REMARK   31  A    between atoms: _88  and  _89
REMARK   32  A    between atoms: _94  and  _96
REMARK   33  A    between atoms: _96  and  _97
REMARK   34  A    between atoms: _96  and  _99
REMARK   35  A    between atoms: _99  and  _100
REMARK   36  A    between atoms: _103  and  _105
REMARK   37  A    between atoms: _105  and  _106
REMARK   38  A    between atoms: _105  and  _108
REMARK   39  A    between atoms: _108  and  _109
REMARK   40  A    between atoms: _109  and  _110
REMARK   41  A    between atoms: _115  and  _117
REMARK   42  A    between atoms: _128  and  _131
REMARK   43  A    between atoms: _131  and  _132
REMARK   44  A    between atoms: _140  and  _141
REMARK   45  A    between atoms: _149  and  _151
REMARK   46  A    between atoms: _151  and  _152
REMARK   47  A    between atoms: _151  and  _154
REMARK   48  A    between atoms: _154  and  _155
REMARK   49  A    between atoms: _155  and  _156
REMARK   50  A    between atoms: _159  and  _161
REMARK   51  A    between atoms: _161  and  _162
REMARK   52  A    between atoms: _161  and  _164
REMARK   53  A    between atoms: _164  and  _165
REMARK   54  A    between atoms: _170  and  _172
REMARK   55  A    between atoms: _172  and  _173
REMARK   56  A    between atoms: _172  and  _175
REMARK   57  A    between atoms: _175  and  _176
REMARK   58  A    between atoms: _176  and  _177
REMARK   59  A    between atoms: _180  and  _182
REMARK   60  A    between atoms: _182  and  _183
REMARK   61  A    between atoms: _182  and  _185
REMARK   62  A    between atoms: _185  and  _186
REMARK   63  A    between atoms: _189  and  _191
REMARK   64  A    between atoms: _191  and  _192
REMARK   65  A    between atoms: _191  and  _194
REMARK   66  A    between atoms: _194  and  _195
REMARK   67  A    between atoms: _196  and  ZN_384
REMARK   68  A    between atoms: _200  and  _202
REMARK   69  A    between atoms: _202  and  _203
REMARK   70  A    between atoms: _202  and  _205
REMARK   71  A    between atoms: _205  and  _206
REMARK   72  A    between atoms: _209  and  _211
REMARK   73  A    between atoms: _211  and  _212
REMARK   74  A    between atoms: _211  and  _214
REMARK   75  A    between atoms: _217  and  _219
REMARK   76  A    between atoms: _219  and  _220
REMARK   77  A    between atoms: _219  and  _222
REMARK   78  A    between atoms: _222  and  _223
REMARK   79  A    between atoms: _228  and  _230
REMARK   80  A    between atoms: _230  and  _231
REMARK   81  A    between atoms: _230  and  _233
REMARK   82  A    between atoms: _233  and  _234
REMARK   83  A    between atoms: _240  and  _242
REMARK   84  A    between atoms: _242  and  _243
REMARK   85  A    between atoms: _242  and  _245
REMARK   86  A    between atoms: _248  and  _250
REMARK   87  A    between atoms: _250  and  _251
REMARK   88  A    between atoms: _250  and  _253
REMARK   89  A    between atoms: _253  and  _254
REMARK   90  A    between atoms: _257  and  _259
REMARK   91  A    between atoms: _259  and  _260
REMARK   92  A    between atoms: _259  and  _262
REMARK   93  A    between atoms: _265  and  _267
REMARK   94  A    between atoms: _267  and  _268
REMARK   95  A    between atoms: _267  and  _270
REMARK   96  A    between atoms: _270  and  _271
REMARK   97  A    between atoms: _273  and  _275
REMARK   98  A    between atoms: _275  and  _276
REMARK   99  A    between atoms: _275  and  _278
REMARK  100  A    between atoms: _278  and  _279
REMARK  101  A    between atoms: _282  and  _284
REMARK  102  A    between atoms: _284  and  _285
REMARK  103  A    between atoms: _284  and  _287
REMARK  104  A    between atoms: _287  and  _288
REMARK  105  A    between atoms: _291  and  _293
REMARK  106  A    between atoms: _293  and  _294
REMARK  107  A    between atoms: _293  and  _296
REMARK  108  A    between atoms: _296  and  _297
REMARK  109  A    between atoms: _301  and  _302
REMARK  110  A    between atoms: _308  and  _309
REMARK  111  A    between atoms: _314  and  _316
REMARK  112  A    between atoms: _316  and  _317
REMARK  113  A    between atoms: _316  and  _319
REMARK  114  A    between atoms: _319  and  _320
REMARK  115  A    between atoms: _323  and  _325
REMARK  116  A    between atoms: _325  and  _326
REMARK  117  A    between atoms: _325  and  _328
REMARK  118  A    between atoms: _328  and  _329
REMARK  119  A    between atoms: _332  and  _334
REMARK  120  A    between atoms: _334  and  _335
REMARK  121  A    between atoms: _334  and  _337
REMARK  122  A    between atoms: _340  and  _342
REMARK  123  A    between atoms: _342  and  _343
REMARK  124  A    between atoms: _342  and  _345
REMARK  125  A    between atoms: _345  and  _346
REMARK  126  A    between atoms: _356  and  _358
REMARK  127  A    between atoms: _358  and  _359
REMARK  128  A    between atoms: _358  and  _361
REMARK  129  A    between atoms: _361  and  _362
REMARK  130  A    between atoms: _367  and  _369
REMARK  131  A    between atoms: _369  and  _370
REMARK  132  A    between atoms: _369  and  _372
REMARK  133  A    between atoms: _372  and  _373
REMARK  134  A    between atoms: _373  and  _374
REMARK  135  A    between atoms: _374  and  _375
REMARK                            x       y       z     vdW  Elec       q    Type
REMARK                         _______ _______ _______ _____ _____    ______ ____
ROOT
ATOM      1  CA  VAL A   1      17.286  11.789  19.732  0.00  0.00    +0.133 C 
ENDROOT
BRANCH   1   2
ATOM      2  CB  VAL A   1      17.746  10.905  18.509  0.00  0.00    +0.023 C 
ATOM      3  CG2 VAL A   1      16.493  10.222  17.895  0.00  0.00    +0.002 C 
ATOM      4  CG1 VAL A   1      18.493  11.692  17.406  0.00  0.00    +0.002 C 
ENDBRANCH   1   2
BRANCH   1   5
ATOM      5  N   VAL A   1      16.247  12.768  19.410  0.00  0.00    -0.239 NA
ATOM      6  H   VAL A   1      16.170  13.151  18.446  0.00  0.00    +0.142 HD
ENDBRANCH   1   5
BRANCH   1   7
ATOM      7  C   VAL A   1      18.461  12.306  20.582  0.00  0.00    +0.224 C 
ATOM      8  O   VAL A   1      19.466  11.582  20.769  0.00  0.00    -0.287 OA
ENDBRANCH   1   7
TORSDOF 3
REMARK  Name = ../refined-set-2016/4q7s/4q7s_pocket.pdb
REMARK  135 active torsions:
REMARK  status: ('A' for Active; 'I' for Inactive)
REMARK    1  A    between atoms: _1  and  _3
REMARK    2  A    between atoms: _3  and  _4
REMARK    3  A    between atoms: _3  and  _6
REMARK    4  A    between atoms: _6  and  _7
REMARK    5  A    between atoms: _17  and  _19
REMARK    6  A    between atoms: _19  and  _20
REMARK    7  A    between atoms: _19  and  _22
REMARK    8  A    between atoms: _22  and  _23
REMARK    9  A    between atoms: _28  and  _29
REMARK   10  A    between atoms: _31  and  _33
REMARK   11  A    between atoms: _33  and  _34
REMARK   12  A    between atoms: _33  and  _36
REMARK   13  A    between atoms: _36  and  _37
REMARK   14  A    between atoms: _47  and  _49
REMARK   15  A    between atoms: _49  and  _50
REMARK   16  A    between atoms: _49  and  _52
REMARK   17  A    between atoms: _52  and  _53
REMARK   18  A    between atoms: _55  and  _57
REMARK   19  A    between atoms: _57  and  _58
REMARK   20  A    between atoms: _57  and  _60
REMARK   21  A    between atoms: _60  and  _61
REMARK   22  A    between atoms: _66  and  _68
REMARK   23  A    between atoms: _68  and  _69
REMARK   24  A    between atoms: _68  and  _71
REMARK   25  A    between atoms: _71  and  _72
REMARK   26  A    between atoms: _77  and  _79
REMARK   27  A    between atoms: _79  and  _80
REMARK   28  A    between atoms: _83  and  _85
REMARK   29  A    between atoms: _85  and  _86
REMARK   30  A    between atoms: _85  and  _88
REMARK   31  A    between atoms: _88  and  _89
REMARK   32  A    between atoms: _94  and  _96
REMARK   33  A    between atoms: _96  and  _97
REMARK   34  A    between atoms: _96  and  _99
REMARK   35  A    between atoms: _99  and  _100
REMARK   36  A    between atoms: _103  and  _105
REMARK   37  A    between atoms: _105  and  _106
REMARK   38  A    between atoms: _105  and  _108
REMARK   39  A    between atoms: _108  and  _109
REMARK   40  A    between atoms: _109  and  _110
REMARK   41  A    between atoms: _115  and  _117
REMARK   42  A    between atoms: _128  and  _131
REMARK   43  A    between atoms: _131  and  _132
REMARK   44  A    between atoms: _140  and  _141
REMARK   45  A    between atoms: _149  and  _151
REMARK   46  A    between atoms: _151  and  _152
REMARK   47  A    between atoms: _151  and  _154
REMARK   48  A    between atoms: _154  and  _155
REMARK   49  A    between atoms: _155  and  _156
REMARK   50  A    between atoms: _159  and  _161
REMARK   51  A    between atoms: _161  and  _162
REMARK   52  A    between atoms: _161  and  _164
REMARK   53  A    between atoms: _164  and  _165
REMARK   54  A    between atoms: _170  and  _172
REMARK   55  A    between atoms: _172  and  _173
REMARK   56  A    between atoms: _172  and  _175
REMARK   57  A    between atoms: _175  and  _176
REMARK   58  A    between atoms: _176  and  _177
REMARK   59  A    between atoms: _180  and  _182
REMARK   60  A    between atoms: _182  and  _183
REMARK   61  A    between atoms: _182  and  _185
REMARK   62  A    between atoms: _185  and  _186
REMARK   63  A    between atoms: _189  and  _191
REMARK   64  A    between atoms: _191  and  _192
REMARK   65  A    between atoms: _191  and  _194
REMARK   66  A    between atoms: _194  and  _195
REMARK   67  A    between atoms: _196  and  ZN_384
REMARK   68  A    between atoms: _200  and  _202
REMARK   69  A    between atoms: _202  and  _203
REMARK   70  A    between atoms: _202  and  _205
REMARK   71  A    between atoms: _205  and  _206
REMARK   72  A    between atoms: _209  and  _211
REMARK   73  A    between atoms: _211  and  _212
REMARK   74  A    between atoms: _211  and  _214
REMARK   75  A    between atoms: _217  and  _219
REMARK   76  A    between atoms: _219  and  _220
REMARK   77  A    between atoms: _219  and  _222
REMARK   78  A    between atoms: _222  and  _223
REMARK   79  A    between atoms: _228  and  _230
REMARK   80  A    between atoms: _230  and  _231
REMARK   81  A    between atoms: _230  and  _233
REMARK   82  A    between atoms: _233  and  _234
REMARK   83  A    between atoms: _240  and  _242
REMARK   84  A    between atoms: _242  and  _243
REMARK   85  A    between atoms: _242  and  _245
REMARK   86  A    between atoms: _248  and  _250
REMARK   87  A    between atoms: _250  and  _251
REMARK   88  A    between atoms: _250  and  _253
REMARK   89  A    between atoms: _253  and  _254
REMARK   90  A    between atoms: _257  and  _259
REMARK   91  A    between atoms: _259  and  _260
REMARK   92  A    between atoms: _259  and  _262
REMARK   93  A    between atoms: _265  and  _267
REMARK   94  A    between atoms: _267  and  _268
REMARK   95  A    between atoms: _267  and  _270
REMARK   96  A    between atoms: _270  and  _271
REMARK   97  A    between atoms: _273  and  _275
REMARK   98  A    between atoms: _275  and  _276
REMARK   99  A    between atoms: _275  and  _278
REMARK  100  A    between atoms: _278  and  _279
REMARK  101  A    between atoms: _282  and  _284
REMARK  102  A    between atoms: _284  and  _285
REMARK  103  A    between atoms: _284  and  _287
REMARK  104  A    between atoms: _287  and  _288
REMARK  105  A    between atoms: _291  and  _293
REMARK  106  A    between atoms: _293  and  _294
REMARK  107  A    between atoms: _293  and  _296
REMARK  108  A    between atoms: _296  and  _297
REMARK  109  A    between atoms: _301  and  _302
REMARK  110  A    between atoms: _308  and  _309
REMARK  111  A    between atoms: _314  and  _316
REMARK  112  A    between atoms: _316  and  _317
REMARK  113  A    between atoms: _316  and  _319
REMARK  114  A    between atoms: _319  and  _320
REMARK  115  A    between atoms: _323  and  _325
REMARK  116  A    between atoms: _325  and  _326
REMARK  117  A    between atoms: _325  and  _328
REMARK  118  A    between atoms: _328  and  _329
REMARK  119  A    between atoms: _332  and  _334
REMARK  120  A    between atoms: _334  and  _335
REMARK  121  A    between atoms: _334  and  _337
REMARK  122  A    between atoms: _340  and  _342
REMARK  123  A    between atoms: _342  and  _343
REMARK  124  A    between atoms: _342  and  _345
REMARK  125  A    between atoms: _345  and  _346
REMARK  126  A    between atoms: _356  and  _358
REMARK  127  A    between atoms: _358  and  _359
REMARK  128  A    between atoms: _358  and  _361
REMARK  129  A    between atoms: _361  and  _362
REMARK  130  A    between atoms: _367  and  _369
REMARK  131  A    between atoms: _369  and  _370
REMARK  132  A    between atoms: _369  and  _372
REMARK  133  A    between atoms: _372  and  _373
REMARK  134  A    between atoms: _373  and  _374
REMARK  135  A    between atoms: _374  and  _375
REMARK                            x       y       z     vdW  Elec       q    Type
REMARK                         _______ _______ _______ _____ _____    ______ ____
ROOT
ATOM      1  CA  LEU A   1      11.471   8.392  21.434  0.00  0.00    +0.133 C 
ENDROOT
BRANCH   1   2
ATOM      2  N   LEU A   1      12.142   9.347  22.329  0.00  0.00    -0.239 NA
ATOM      3  H   LEU A   1      12.662   9.009  23.164  0.00  0.00    +0.142 HD
ENDBRANCH   1   2
BRANCH   1   4
ATOM      4  C   LEU A   1      10.566   7.458  22.210  0.00  0.00    +0.224 C 
ATOM      5  O   LEU A   1      10.840   7.144  23.388  0.00  0.00    -0.287 OA
ENDBRANCH   1   4
BRANCH   1   6
ATOM      6  CB  LEU A   1      12.538   7.519  20.690  0.00  0.00    +0.025 C 
BRANCH   6   7
ATOM      7  CG  LEU A   1      13.513   8.242  19.731  0.00  0.00    +0.002 C 
ATOM      8  CD2 LEU A   1      14.424   7.163  19.068  0.00  0.00    +0.000 C 
ATOM      9  CD1 LEU A   1      12.722   9.158  18.619  0.00  0.00    +0.000 C 
ENDBRANCH   6   7
ENDBRANCH   1   6
TORSDOF 4
REMARK  Name = ../refined-set-2016/4q7s/4q7s_pocket.pdb
REMARK  135 active torsions:
REMARK  status: ('A' for Active; 'I' for Inactive)
REMARK    1  A    between atoms: _1  and  _3
REMARK    2  A    between atoms: _3  and  _4
REMARK    3  A    between atoms: _3  and  _6
REMARK    4  A    between atoms: _6  and  _7
REMARK    5  A    between atoms: _17  and  _19
REMARK    6  A    between atoms: _19  and  _20
REMARK    7  A    between atoms: _19  and  _22
REMARK    8  A    between atoms: _22  and  _23
REMARK    9  A    between atoms: _28  and  _29
REMARK   10  A    between atoms: _31  and  _33
REMARK   11  A    between atoms: _33  and  _34
REMARK   12  A    between atoms: _33  and  _36
REMARK   13  A    between atoms: _36  and  _37
REMARK   14  A    between atoms: _47  and  _49
REMARK   15  A    between atoms: _49  and  _50
REMARK   16  A    between atoms: _49  and  _52
REMARK   17  A    between atoms: _52  and  _53
REMARK   18  A    between atoms: _55  and  _57
REMARK   19  A    between atoms: _57  and  _58
REMARK   20  A    between atoms: _57  and  _60
REMARK   21  A    between atoms: _60  and  _61
REMARK   22  A    between atoms: _66  and  _68
REMARK   23  A    between atoms: _68  and  _69
REMARK   24  A    between atoms: _68  and  _71
REMARK   25  A    between atoms: _71  and  _72
REMARK   26  A    between atoms: _77  and  _79
REMARK   27  A    between atoms: _79  and  _80
REMARK   28  A    between atoms: _83  and  _85
REMARK   29  A    between atoms: _85  and  _86
REMARK   30  A    between atoms: _85  and  _88
REMARK   31  A    between atoms: _88  and  _89
REMARK   32  A    between atoms: _94  and  _96
REMARK   33  A    between atoms: _96  and  _97
REMARK   34  A    between atoms: _96  and  _99
REMARK   35  A    between atoms: _99  and  _100
REMARK   36  A    between atoms: _103  and  _105
REMARK   37  A    between atoms: _105  and  _106
REMARK   38  A    between atoms: _105  and  _108
REMARK   39  A    between atoms: _108  and  _109
REMARK   40  A    between atoms: _109  and  _110
REMARK   41  A    between atoms: _115  and  _117
REMARK   42  A    between atoms: _128  and  _131
REMARK   43  A    between atoms: _131  and  _132
REMARK   44  A    between atoms: _140  and  _141
REMARK   45  A    between atoms: _149  and  _151
REMARK   46  A    between atoms: _151  and  _152
REMARK   47  A    between atoms: _151  and  _154
REMARK   48  A    between atoms: _154  and  _155
REMARK   49  A    between atoms: _155  and  _156
REMARK   50  A    between atoms: _159  and  _161
REMARK   51  A    between atoms: _161  and  _162
REMARK   52  A    between atoms: _161  and  _164
REMARK   53  A    between atoms: _164  and  _165
REMARK   54  A    between atoms: _170  and  _172
REMARK   55  A    between atoms: _172  and  _173
REMARK   56  A    between atoms: _172  and  _175
REMARK   57  A    between atoms: _175  and  _176
REMARK   58  A    between atoms: _176  and  _177
REMARK   59  A    between atoms: _180  and  _182
REMARK   60  A    between atoms: _182  and  _183
REMARK   61  A    between atoms: _182  and  _185
REMARK   62  A    between atoms: _185  and  _186
REMARK   63  A    between atoms: _189  and  _191
REMARK   64  A    between atoms: _191  and  _192
REMARK   65  A    between atoms: _191  and  _194
REMARK   66  A    between atoms: _194  and  _195
REMARK   67  A    between atoms: _196  and  ZN_384
REMARK   68  A    between atoms: _200  and  _202
REMARK   69  A    between atoms: _202  and  _203
REMARK   70  A    between atoms: _202  and  _205
REMARK   71  A    between atoms: _205  and  _206
REMARK   72  A    between atoms: _209  and  _211
REMARK   73  A    between atoms: _211  and  _212
REMARK   74  A    between atoms: _211  and  _214
REMARK   75  A    between atoms: _217  and  _219
REMARK   76  A    between atoms: _219  and  _220
REMARK   77  A    between atoms: _219  and  _222
REMARK   78  A    between atoms: _222  and  _223
REMARK   79  A    between atoms: _228  and  _230
REMARK   80  A    between atoms: _230  and  _231
REMARK   81  A    between atoms: _230  and  _233
REMARK   82  A    between atoms: _233  and  _234
REMARK   83  A    between atoms: _240  and  _242
REMARK   84  A    between atoms: _242  and  _243
REMARK   85  A    between atoms: _242  and  _245
REMARK   86  A    between atoms: _248  and  _250
REMARK   87  A    between atoms: _250  and  _251
REMARK   88  A    between atoms: _250  and  _253
REMARK   89  A    between atoms: _253  and  _254
REMARK   90  A    between atoms: _257  and  _259
REMARK   91  A    between atoms: _259  and  _260
REMARK   92  A    between atoms: _259  and  _262
REMARK   93  A    between atoms: _265  and  _267
REMARK   94  A    between atoms: _267  and  _268
REMARK   95  A    between atoms: _267  and  _270
REMARK   96  A    between atoms: _270  and  _271
REMARK   97  A    between atoms: _273  and  _275
REMARK   98  A    between atoms: _275  and  _276
REMARK   99  A    between atoms: _275  and  _278
REMARK  100  A    between atoms: _278  and  _279
REMARK  101  A    between atoms: _282  and  _284
REMARK  102  A    between atoms: _284  and  _285
REMARK  103  A    between atoms: _284  and  _287
REMARK  104  A    between atoms: _287  and  _288
REMARK  105  A    between atoms: _291  and  _293
REMARK  106  A    between atoms: _293  and  _294
REMARK  107  A    between atoms: _293  and  _296
REMARK  108  A    between atoms: _296  and  _297
REMARK  109  A    between atoms: _301  and  _302
REMARK  110  A    between atoms: _308  and  _309
REMARK  111  A    between atoms: _314  and  _316
REMARK  112  A    between atoms: _316  and  _317
REMARK  113  A    between atoms: _316  and  _319
REMARK  114  A    between atoms: _319  and  _320
REMARK  115  A    between atoms: _323  and  _325
REMARK  116  A    between atoms: _325  and  _326
REMARK  117  A    between atoms: _325  and  _328
REMARK  118  A    between atoms: _328  and  _329
REMARK  119  A    between atoms: _332  and  _334
REMARK  120  A    between atoms: _334  and  _335
REMARK  121  A    between atoms: _334  and  _337
REMARK  122  A    between atoms: _340  and  _342
REMARK  123  A    between atoms: _342  and  _343
REMARK  124  A    between atoms: _342  and  _345
REMARK  125  A    between atoms: _345  and  _346
REMARK  126  A    between atoms: _356  and  _358
REMARK  127  A    between atoms: _358  and  _359
REMARK  128  A    between atoms: _358  and  _361
REMARK  129  A    between atoms: _361  and  _362
REMARK  130  A    between atoms: _367  and  _369
REMARK  131  A    between atoms: _369  and  _370
REMARK  132  A    between atoms: _369  and  _372
REMARK  133  A    between atoms: _372  and  _373
REMARK  134  A    between atoms: _373  and  _374
REMARK  135  A    between atoms: _374  and  _375
REMARK                            x       y       z     vdW  Elec       q    Type
REMARK                         _______ _______ _______ _____ _____    ______ ____
ROOT
ATOM      1  CA  VAL A   1       9.097   2.560  20.216  0.00  0.00    +0.133 C 
ENDROOT
BRANCH   1   2
ATOM      2  CB  VAL A   1      10.456   1.973  19.820  0.00  0.00    +0.023 C 
ATOM      3  CG2 VAL A   1      11.482   3.053  19.353  0.00  0.00    +0.002 C 
ATOM      4  CG1 VAL A   1      10.256   0.958  18.623  0.00  0.00    +0.002 C 
ENDBRANCH   1   2
BRANCH   1   5
ATOM      5  N   VAL A   1       9.121   3.601  21.277  0.00  0.00    -0.239 NA
ATOM      6  H   VAL A   1       9.463   3.388  22.236  0.00  0.00    +0.142 HD
ENDBRANCH   1   5
BRANCH   1   7
ATOM      7  C   VAL A   1       8.158   1.466  20.668  0.00  0.00    +0.224 C 
ATOM      8  O   VAL A   1       8.304   1.008  21.793  0.00  0.00    -0.287 OA
ENDBRANCH   1   7
TORSDOF 3
REMARK  Name = ../refined-set-2016/4q7s/4q7s_pocket.pdb
REMARK  135 active torsions:
REMARK  status: ('A' for Active; 'I' for Inactive)
REMARK    1  A    between atoms: _1  and  _3
REMARK    2  A    between atoms: _3  and  _4
REMARK    3  A    between atoms: _3  and  _6
REMARK    4  A    between atoms: _6  and  _7
REMARK    5  A    between atoms: _17  and  _19
REMARK    6  A    between atoms: _19  and  _20
REMARK    7  A    between atoms: _19  and  _22
REMARK    8  A    between atoms: _22  and  _23
REMARK    9  A    between atoms: _28  and  _29
REMARK   10  A    between atoms: _31  and  _33
REMARK   11  A    between atoms: _33  and  _34
REMARK   12  A    between atoms: _33  and  _36
REMARK   13  A    between atoms: _36  and  _37
REMARK   14  A    between atoms: _47  and  _49
REMARK   15  A    between atoms: _49  and  _50
REMARK   16  A    between atoms: _49  and  _52
REMARK   17  A    between atoms: _52  and  _53
REMARK   18  A    between atoms: _55  and  _57
REMARK   19  A    between atoms: _57  and  _58
REMARK   20  A    between atoms: _57  and  _60
REMARK   21  A    between atoms: _60  and  _61
REMARK   22  A    between atoms: _66  and  _68
REMARK   23  A    between atoms: _68  and  _69
REMARK   24  A    between atoms: _68  and  _71
REMARK   25  A    between atoms: _71  and  _72
REMARK   26  A    between atoms: _77  and  _79
REMARK   27  A    between atoms: _79  and  _80
REMARK   28  A    between atoms: _83  and  _85
REMARK   29  A    between atoms: _85  and  _86
REMARK   30  A    between atoms: _85  and  _88
REMARK   31  A    between atoms: _88  and  _89
REMARK   32  A    between atoms: _94  and  _96
REMARK   33  A    between atoms: _96  and  _97
REMARK   34  A    between atoms: _96  and  _99
REMARK   35  A    between atoms: _99  and  _100
REMARK   36  A    between atoms: _103  and  _105
REMARK   37  A    between atoms: _105  and  _106
REMARK   38  A    between atoms: _105  and  _108
REMARK   39  A    between atoms: _108  and  _109
REMARK   40  A    between atoms: _109  and  _110
REMARK   41  A    between atoms: _115  and  _117
REMARK   42  A    between atoms: _128  and  _131
REMARK   43  A    between atoms: _131  and  _132
REMARK   44  A    between atoms: _140  and  _141
REMARK   45  A    between atoms: _149  and  _151
REMARK   46  A    between atoms: _151  and  _152
REMARK   47  A    between atoms: _151  and  _154
REMARK   48  A    between atoms: _154  and  _155
REMARK   49  A    between atoms: _155  and  _156
REMARK   50  A    between atoms: _159  and  _161
REMARK   51  A    between atoms: _161  and  _162
REMARK   52  A    between atoms: _161  and  _164
REMARK   53  A    between atoms: _164  and  _165
REMARK   54  A    between atoms: _170  and  _172
REMARK   55  A    between atoms: _172  and  _173
REMARK   56  A    between atoms: _172  and  _175
REMARK   57  A    between atoms: _175  and  _176
REMARK   58  A    between atoms: _176  and  _177
REMARK   59  A    between atoms: _180  and  _182
REMARK   60  A    between atoms: _182  and  _183
REMARK   61  A    between atoms: _182  and  _185
REMARK   62  A    between atoms: _185  and  _186
REMARK   63  A    between atoms: _189  and  _191
REMARK   64  A    between atoms: _191  and  _192
REMARK   65  A    between atoms: _191  and  _194
REMARK   66  A    between atoms: _194  and  _195
REMARK   67  A    between atoms: _196  and  ZN_384
REMARK   68  A    between atoms: _200  and  _202
REMARK   69  A    between atoms: _202  and  _203
REMARK   70  A    between atoms: _202  and  _205
REMARK   71  A    between atoms: _205  and  _206
REMARK   72  A    between atoms: _209  and  _211
REMARK   73  A    between atoms: _211  and  _212
REMARK   74  A    between atoms: _211  and  _214
REMARK   75  A    between atoms: _217  and  _219
REMARK   76  A    between atoms: _219  and  _220
REMARK   77  A    between atoms: _219  and  _222
REMARK   78  A    between atoms: _222  and  _223
REMARK   79  A    between atoms: _228  and  _230
REMARK   80  A    between atoms: _230  and  _231
REMARK   81  A    between atoms: _230  and  _233
REMARK   82  A    between atoms: _233  and  _234
REMARK   83  A    between atoms: _240  and  _242
REMARK   84  A    between atoms: _242  and  _243
REMARK   85  A    between atoms: _242  and  _245
REMARK   86  A    between atoms: _248  and  _250
REMARK   87  A    between atoms: _250  and  _251
REMARK   88  A    between atoms: _250  and  _253
REMARK   89  A    between atoms: _253  and  _254
REMARK   90  A    between atoms: _257  and  _259
REMARK   91  A    between atoms: _259  and  _260
REMARK   92  A    between atoms: _259  and  _262
REMARK   93  A    between atoms: _265  and  _267
REMARK   94  A    between atoms: _267  and  _268
REMARK   95  A    between atoms: _267  and  _270
REMARK   96  A    between atoms: _270  and  _271
REMARK   97  A    between atoms: _273  and  _275
REMARK   98  A    between atoms: _275  and  _276
REMARK   99  A    between atoms: _275  and  _278
REMARK  100  A    between atoms: _278  and  _279
REMARK  101  A    between atoms: _282  and  _284
REMARK  102  A    between atoms: _284  and  _285
REMARK  103  A    between atoms: _284  and  _287
REMARK  104  A    between atoms: _287  and  _288
REMARK  105  A    between atoms: _291  and  _293
REMARK  106  A    between atoms: _293  and  _294
REMARK  107  A    between atoms: _293  and  _296
REMARK  108  A    between atoms: _296  and  _297
REMARK  109  A    between atoms: _301  and  _302
REMARK  110  A    between atoms: _308  and  _309
REMARK  111  A    between atoms: _314  and  _316
REMARK  112  A    between atoms: _316  and  _317
REMARK  113  A    between atoms: _316  and  _319
REMARK  114  A    between atoms: _319  and  _320
REMARK  115  A    between atoms: _323  and  _325
REMARK  116  A    between atoms: _325  and  _326
REMARK  117  A    between atoms: _325  and  _328
REMARK  118  A    between atoms: _328  and  _329
REMARK  119  A    between atoms: _332  and  _334
REMARK  120  A    between atoms: _334  and  _335
REMARK  121  A    between atoms: _334  and  _337
REMARK  122  A    between atoms: _340  and  _342
REMARK  123  A    between atoms: _342  and  _343
REMARK  124  A    between atoms: _342  and  _345
REMARK  125  A    between atoms: _345  and  _346
REMARK  126  A    between atoms: _356  and  _358
REMARK  127  A    between atoms: _358  and  _359
REMARK  128  A    between atoms: _358  and  _361
REMARK  129  A    between atoms: _361  and  _362
REMARK  130  A    between atoms: _367  and  _369
REMARK  131  A    between atoms: _369  and  _370
REMARK  132  A    between atoms: _369  and  _372
REMARK  133  A    between atoms: _372  and  _373
REMARK  134  A    between atoms: _373  and  _374
REMARK  135  A    between atoms: _374  and  _375
REMARK                            x       y       z     vdW  Elec       q    Type
REMARK                         _______ _______ _______ _____ _____    ______ ____
ROOT
ATOM      1  C   THR A   4      21.879   0.821  16.334  0.00  0.00    +0.246 C 
ATOM      2  O   THR A   4      21.395   1.770  16.970  0.00  0.00    -0.273 OA
ATOM      3  N   PRO A   5      23.150   0.819  15.875  0.00  0.00    -0.272 N 
ATOM      4  CA  PRO A   5      23.865   2.074  15.976  0.00  0.00    +0.152 C 
ATOM      5  CB  PRO A   5      25.114   1.818  15.141  0.00  0.00    +0.031 C 
ATOM      6  CG  PRO A   5      25.422   0.330  15.419  0.00  0.00    +0.024 C 
ATOM      7  CD  PRO A   5      23.998  -0.295  15.390  0.00  0.00    +0.094 C 
ENDROOT
BRANCH   4   8
ATOM      8  C   PRO A   5      23.073   3.255  15.409  0.00  0.00    +0.244 C 
ATOM      9  N   PRO A   6      23.153   4.441  16.025  0.00  0.00    -0.272 N 
ATOM     10  CA  PRO A   6      24.035   4.888  17.100  0.00  0.00    +0.152 C 
ATOM     11  CB  PRO A   6      24.101   6.411  16.874  0.00  0.00    +0.031 C 
ATOM     12  CG  PRO A   6      22.771   6.736  16.280  0.00  0.00    +0.024 C 
ATOM     13  CD  PRO A   6      22.348   5.535  15.474  0.00  0.00    +0.094 C 
ATOM     14  O   PRO A   5      22.481   3.120  14.321  0.00  0.00    -0.273 OA
BRANCH  10  15
ATOM     15  C   PRO A   6      23.616   4.483  18.548  0.00  0.00    +0.241 C 
ATOM     16  O   PRO A   6      24.223   4.991  19.548  0.00  0.00    -0.273 OA
ATOM     17  N   LEU A   7      22.676   3.518  18.681  0.00  0.00    -0.297 N 
ATOM     18  H   LEU A   7      22.161   3.188  17.840  0.00  0.00    +0.150 HD
BRANCH  17  19
ATOM     19  CA  LEU A   7      22.362   2.914  20.020  0.00  0.00    +0.149 C 
BRANCH  19  20
ATOM     20  C   LEU A   7      21.969   3.950  21.097  0.00  0.00    +0.241 C 
ATOM     21  O   LEU A   7      22.236   3.778  22.323  0.00  0.00    -0.273 OA
ATOM     22  N   LEU A   8      21.396   5.059  20.643  0.00  0.00    -0.298 N 
ATOM     23  H   LEU A   8      21.139   5.139  19.638  0.00  0.00    +0.150 HD
BRANCH  22  24
ATOM     24  CA  LEU A   8      21.122   6.188  21.575  0.00  0.00    +0.137 C 
BRANCH  24  25
ATOM     25  C   LEU A   8      20.059   5.884  22.604  0.00  0.00    +0.227 C 
ATOM     26  O   LEU A   8      19.026   5.232  22.312  0.00  0.00    -0.286 OA
ENDBRANCH  24  25
BRANCH  24  27
ATOM     27  CB  LEU A   8      20.720   7.431  20.828  0.00  0.00    +0.028 C 
BRANCH  27  28
ATOM     28  CG  LEU A   8      21.547   7.828  19.614  0.00  0.00    +0.002 C 
ATOM     29  CD2 LEU A   8      22.807   8.434  20.190  0.00  0.00    +0.000 C 
ATOM     30  CD1 LEU A   8      20.865   8.896  18.746  0.00  0.00    +0.000 C 
ENDBRANCH  27  28
ENDBRANCH  24  27
ENDBRANCH  22  24
ENDBRANCH  19  20
BRANCH  19  31
ATOM     31  CB  LEU A   7      23.510   2.006  20.525  0.00  0.00    +0.029 C 
BRANCH  31  32
ATOM     32  CG  LEU A   7      23.931   0.847  19.593  0.00  0.00    +0.002 C 
ATOM     33  CD2 LEU A   7      25.221   0.138  20.155  0.00  0.00    +0.000 C 
ATOM     34  CD1 LEU A   7      22.763  -0.226  19.449  0.00  0.00    +0.000 C 
ENDBRANCH  31  32
ENDBRANCH  19  31
ENDBRANCH  17  19
ENDBRANCH  10  15
ENDBRANCH   4   8
BRANCH   1  35
ATOM     35  CA  THR A   4      21.053  -0.399  16.085  0.00  0.00    +0.176 C 
BRANCH  35  38
ATOM     36  C   THR A   3      19.880  -1.536  17.906  0.00  0.00    +0.243 C 
ATOM     37  O   THR A   3      20.578  -2.542  17.754  0.00  0.00    -0.273 OA
ATOM     38  N   THR A   4      20.003  -0.473  17.103  0.00  0.00    -0.295 N 
ATOM     39  H   THR A   4      19.337   0.319  17.204  0.00  0.00    +0.150 HD
BRANCH  36  40
ATOM     40  CA  THR A   3      18.844  -1.518  19.032  0.00  0.00    +0.176 C 
BRANCH  40  43
ATOM     41  C   LEU A   2      18.570   0.740  19.775  0.00  0.00    +0.241 C 
ATOM     42  O   LEU A   2      19.552   0.585  20.511  0.00  0.00    -0.273 OA
ATOM     43  N   THR A   3      18.107  -0.246  19.021  0.00  0.00    -0.295 N 
ATOM     44  H   THR A   3      17.252  -0.124  18.442  0.00  0.00    +0.150 HD
BRANCH  41  45
ATOM     45  CA  LEU A   2      17.861   2.098  19.696  0.00  0.00    +0.149 C 
BRANCH  45  48
ATOM     46  C   SER A   1      17.419   2.061  22.102  0.00  0.00    +0.241 C 
ATOM     47  O   SER A   1      16.618   1.097  21.971  0.00  0.00    -0.274 OA
ATOM     48  N   LEU A   2      17.904   2.717  21.049  0.00  0.00    -0.297 N 
ATOM     49  H   LEU A   2      18.314   3.665  21.173  0.00  0.00    +0.150 HD
BRANCH  46  50
ATOM     50  CA  SER A   1      17.895   2.508  23.504  0.00  0.00    +0.174 C 
BRANCH  50  51
ATOM     51  N   SER A   1      17.101   1.922  24.564  0.00  0.00    -0.236 NA
ATOM     52  H   SER A   1      16.841   0.919  24.475  0.00  0.00    +0.142 HD
ENDBRANCH  50  51
BRANCH  50  53
ATOM     53  CB  SER A   1      19.350   2.060  23.688  0.00  0.00    +0.163 C 
BRANCH  53  54
ATOM     54  OG  SER A   1      19.548   0.672  23.288  0.00  0.00    -0.380 OA
ATOM     55  H   SER A   1      19.310   0.568  22.333  0.00  0.00    +0.211 HD
ENDBRANCH  53  54
ENDBRANCH  50  53
ENDBRANCH  46  50
ENDBRANCH  45  48
BRANCH  45  56
ATOM     56  CB  LEU A   2      18.543   2.991  18.678  0.00  0.00    +0.029 C 
BRANCH  56  57
ATOM     57  CG  LEU A   2      18.349   4.508  18.706  0.00  0.00    +0.002 C 
ATOM     58  CD2 LEU A   2      16.853   4.983  18.585  0.00  0.00    +0.000 C 
ATOM     59  CD1 LEU A   2      19.217   5.193  17.573  0.00  0.00    +0.000 C 
ENDBRANCH  56  57
ENDBRANCH  45  56
ENDBRANCH  41  45
ENDBRANCH  40  43
BRANCH  40  60
ATOM     60  CB  THR A   3      17.887  -2.692  18.869  0.00  0.00    +0.137 C 
ATOM     61  CG2 THR A   3      16.886  -2.728  20.023  0.00  0.00    +0.034 C 
BRANCH  60  62
ATOM     62  OG1 THR A   3      17.180  -2.547  17.632  0.00  0.00    -0.382 OA
ATOM     63  HG1 THR A   3      16.556  -3.307  17.519  0.00  0.00    +0.210 HD
ENDBRANCH  60  62
ENDBRANCH  40  60
ENDBRANCH  36  40
ENDBRANCH  35  38
BRANCH  35  64
ATOM     64  CB  THR A   4      20.388  -0.280  14.682  0.00  0.00    +0.137 C 
ATOM     65  CG2 THR A   4      19.864  -1.629  14.301  0.00  0.00    +0.034 C 
BRANCH  64  66
ATOM     66  OG1 THR A   4      19.245   0.566  14.829  0.00  0.00    -0.382 OA
ATOM     67  HG1 THR A   4      18.618   0.162  15.480  0.00  0.00    +0.210 HD
ENDBRANCH  64  66
ENDBRANCH  35  64
ENDBRANCH   1  35
TORSDOF 26
REMARK  Name = ../refined-set-2016/4q7s/4q7s_pocket.pdb
REMARK  135 active torsions:
REMARK  status: ('A' for Active; 'I' for Inactive)
REMARK    1  A    between atoms: _1  and  _3
REMARK    2  A    between atoms: _3  and  _4
REMARK    3  A    between atoms: _3  and  _6
REMARK    4  A    between atoms: _6  and  _7
REMARK    5  A    between atoms: _17  and  _19
REMARK    6  A    between atoms: _19  and  _20
REMARK    7  A    between atoms: _19  and  _22
REMARK    8  A    between atoms: _22  and  _23
REMARK    9  A    between atoms: _28  and  _29
REMARK   10  A    between atoms: _31  and  _33
REMARK   11  A    between atoms: _33  and  _34
REMARK   12  A    between atoms: _33  and  _36
REMARK   13  A    between atoms: _36  and  _37
REMARK   14  A    between atoms: _47  and  _49
REMARK   15  A    between atoms: _49  and  _50
REMARK   16  A    between atoms: _49  and  _52
REMARK   17  A    between atoms: _52  and  _53
REMARK   18  A    between atoms: _55  and  _57
REMARK   19  A    between atoms: _57  and  _58
REMARK   20  A    between atoms: _57  and  _60
REMARK   21  A    between atoms: _60  and  _61
REMARK   22  A    between atoms: _66  and  _68
REMARK   23  A    between atoms: _68  and  _69
REMARK   24  A    between atoms: _68  and  _71
REMARK   25  A    between atoms: _71  and  _72
REMARK   26  A    between atoms: _77  and  _79
REMARK   27  A    between atoms: _79  and  _80
REMARK   28  A    between atoms: _83  and  _85
REMARK   29  A    between atoms: _85  and  _86
REMARK   30  A    between atoms: _85  and  _88
REMARK   31  A    between atoms: _88  and  _89
REMARK   32  A    between atoms: _94  and  _96
REMARK   33  A    between atoms: _96  and  _97
REMARK   34  A    between atoms: _96  and  _99
REMARK   35  A    between atoms: _99  and  _100
REMARK   36  A    between atoms: _103  and  _105
REMARK   37  A    between atoms: _105  and  _106
REMARK   38  A    between atoms: _105  and  _108
REMARK   39  A    between atoms: _108  and  _109
REMARK   40  A    between atoms: _109  and  _110
REMARK   41  A    between atoms: _115  and  _117
REMARK   42  A    between atoms: _128  and  _131
REMARK   43  A    between atoms: _131  and  _132
REMARK   44  A    between atoms: _140  and  _141
REMARK   45  A    between atoms: _149  and  _151
REMARK   46  A    between atoms: _151  and  _152
REMARK   47  A    between atoms: _151  and  _154
REMARK   48  A    between atoms: _154  and  _155
REMARK   49  A    between atoms: _155  and  _156
REMARK   50  A    between atoms: _159  and  _161
REMARK   51  A    between atoms: _161  and  _162
REMARK   52  A    between atoms: _161  and  _164
REMARK   53  A    between atoms: _164  and  _165
REMARK   54  A    between atoms: _170  and  _172
REMARK   55  A    between atoms: _172  and  _173
REMARK   56  A    between atoms: _172  and  _175
REMARK   57  A    between atoms: _175  and  _176
REMARK   58  A    between atoms: _176  and  _177
REMARK   59  A    between atoms: _180  and  _182
REMARK   60  A    between atoms: _182  and  _183
REMARK   61  A    between atoms: _182  and  _185
REMARK   62  A    between atoms: _185  and  _186
REMARK   63  A    between atoms: _189  and  _191
REMARK   64  A    between atoms: _191  and  _192
REMARK   65  A    between atoms: _191  and  _194
REMARK   66  A    between atoms: _194  and  _195
REMARK   67  A    between atoms: _196  and  ZN_384
REMARK   68  A    between atoms: _200  and  _202
REMARK   69  A    between atoms: _202  and  _203
REMARK   70  A    between atoms: _202  and  _205
REMARK   71  A    between atoms: _205  and  _206
REMARK   72  A    between atoms: _209  and  _211
REMARK   73  A    between atoms: _211  and  _212
REMARK   74  A    between atoms: _211  and  _214
REMARK   75  A    between atoms: _217  and  _219
REMARK   76  A    between atoms: _219  and  _220
REMARK   77  A    between atoms: _219  and  _222
REMARK   78  A    between atoms: _222  and  _223
REMARK   79  A    between atoms: _228  and  _230
REMARK   80  A    between atoms: _230  and  _231
REMARK   81  A    between atoms: _230  and  _233
REMARK   82  A    between atoms: _233  and  _234
REMARK   83  A    between atoms: _240  and  _242
REMARK   84  A    between atoms: _242  and  _243
REMARK   85  A    between atoms: _242  and  _245
REMARK   86  A    between atoms: _248  and  _250
REMARK   87  A    between atoms: _250  and  _251
REMARK   88  A    between atoms: _250  and  _253
REMARK   89  A    between atoms: _253  and  _254
REMARK   90  A    between atoms: _257  and  _259
REMARK   91  A    between atoms: _259  and  _260
REMARK   92  A    between atoms: _259  and  _262
REMARK   93  A    between atoms: _265  and  _267
REMARK   94  A    between atoms: _267  and  _268
REMARK   95  A    between atoms: _267  and  _270
REMARK   96  A    between atoms: _270  and  _271
REMARK   97  A    between atoms: _273  and  _275
REMARK   98  A    between atoms: _275  and  _276
REMARK   99  A    between atoms: _275  and  _278
REMARK  100  A    between atoms: _278  and  _279
REMARK  101  A    between atoms: _282  and  _284
REMARK  102  A    between atoms: _284  and  _285
REMARK  103  A    between atoms: _284  and  _287
REMARK  104  A    between atoms: _287  and  _288
REMARK  105  A    between atoms: _291  and  _293
REMARK  106  A    between atoms: _293  and  _294
REMARK  107  A    between atoms: _293  and  _296
REMARK  108  A    between atoms: _296  and  _297
REMARK  109  A    between atoms: _301  and  _302
REMARK  110  A    between atoms: _308  and  _309
REMARK  111  A    between atoms: _314  and  _316
REMARK  112  A    between atoms: _316  and  _317
REMARK  113  A    between atoms: _316  and  _319
REMARK  114  A    between atoms: _319  and  _320
REMARK  115  A    between atoms: _323  and  _325
REMARK  116  A    between atoms: _325  and  _326
REMARK  117  A    between atoms: _325  and  _328
REMARK  118  A    between atoms: _328  and  _329
REMARK  119  A    between atoms: _332  and  _334
REMARK  120  A    between atoms: _334  and  _335
REMARK  121  A    between atoms: _334  and  _337
REMARK  122  A    between atoms: _340  and  _342
REMARK  123  A    between atoms: _342  and  _343
REMARK  124  A    between atoms: _342  and  _345
REMARK  125  A    between atoms: _345  and  _346
REMARK  126  A    between atoms: _356  and  _358
REMARK  127  A    between atoms: _358  and  _359
REMARK  128  A    between atoms: _358  and  _361
REMARK  129  A    between atoms: _361  and  _362
REMARK  130  A    between atoms: _367  and  _369
REMARK  131  A    between atoms: _369  and  _370
REMARK  132  A    between atoms: _369  and  _372
REMARK  133  A    between atoms: _372  and  _373
REMARK  134  A    between atoms: _373  and  _374
REMARK  135  A    between atoms: _374  and  _375
REMARK                            x       y       z     vdW  Elec       q    Type
REMARK                         _______ _______ _______ _____ _____    ______ ____
ROOT
ATOM      1  CA  VAL A   1      13.559   5.240  23.964  0.00  0.00    +0.133 C 
ENDROOT
BRANCH   1   2
ATOM      2  CB  VAL A   1      13.856   3.909  23.204  0.00  0.00    +0.023 C 
ATOM      3  CG2 VAL A   1      12.509   3.148  22.868  0.00  0.00    +0.002 C 
ATOM      4  CG1 VAL A   1      14.685   4.167  21.893  0.00  0.00    +0.002 C 
ENDBRANCH   1   2
BRANCH   1   5
ATOM      5  N   VAL A   1      14.829   5.984  24.275  0.00  0.00    -0.239 NA
ATOM      6  H   VAL A   1      15.678   5.456  24.562  0.00  0.00    +0.142 HD
ENDBRANCH   1   5
BRANCH   1   7
ATOM      7  C   VAL A   1      12.810   4.813  25.193  0.00  0.00    +0.224 C 
ATOM      8  O   VAL A   1      13.348   4.101  26.021  0.00  0.00    -0.287 OA
ENDBRANCH   1   7
TORSDOF 3
REMARK  Name = ../refined-set-2016/4q7s/4q7s_pocket.pdb
REMARK  135 active torsions:
REMARK  status: ('A' for Active; 'I' for Inactive)
REMARK    1  A    between atoms: _1  and  _3
REMARK    2  A    between atoms: _3  and  _4
REMARK    3  A    between atoms: _3  and  _6
REMARK    4  A    between atoms: _6  and  _7
REMARK    5  A    between atoms: _17  and  _19
REMARK    6  A    between atoms: _19  and  _20
REMARK    7  A    between atoms: _19  and  _22
REMARK    8  A    between atoms: _22  and  _23
REMARK    9  A    between atoms: _28  and  _29
REMARK   10  A    between atoms: _31  and  _33
REMARK   11  A    between atoms: _33  and  _34
REMARK   12  A    between atoms: _33  and  _36
REMARK   13  A    between atoms: _36  and  _37
REMARK   14  A    between atoms: _47  and  _49
REMARK   15  A    between atoms: _49  and  _50
REMARK   16  A    between atoms: _49  and  _52
REMARK   17  A    between atoms: _52  and  _53
REMARK   18  A    between atoms: _55  and  _57
REMARK   19  A    between atoms: _57  and  _58
REMARK   20  A    between atoms: _57  and  _60
REMARK   21  A    between atoms: _60  and  _61
REMARK   22  A    between atoms: _66  and  _68
REMARK   23  A    between atoms: _68  and  _69
REMARK   24  A    between atoms: _68  and  _71
REMARK   25  A    between atoms: _71  and  _72
REMARK   26  A    between atoms: _77  and  _79
REMARK   27  A    between atoms: _79  and  _80
REMARK   28  A    between atoms: _83  and  _85
REMARK   29  A    between atoms: _85  and  _86
REMARK   30  A    between atoms: _85  and  _88
REMARK   31  A    between atoms: _88  and  _89
REMARK   32  A    between atoms: _94  and  _96
REMARK   33  A    between atoms: _96  and  _97
REMARK   34  A    between atoms: _96  and  _99
REMARK   35  A    between atoms: _99  and  _100
REMARK   36  A    between atoms: _103  and  _105
REMARK   37  A    between atoms: _105  and  _106
REMARK   38  A    between atoms: _105  and  _108
REMARK   39  A    between atoms: _108  and  _109
REMARK   40  A    between atoms: _109  and  _110
REMARK   41  A    between atoms: _115  and  _117
REMARK   42  A    between atoms: _128  and  _131
REMARK   43  A    between atoms: _131  and  _132
REMARK   44  A    between atoms: _140  and  _141
REMARK   45  A    between atoms: _149  and  _151
REMARK   46  A    between atoms: _151  and  _152
REMARK   47  A    between atoms: _151  and  _154
REMARK   48  A    between atoms: _154  and  _155
REMARK   49  A    between atoms: _155  and  _156
REMARK   50  A    between atoms: _159  and  _161
REMARK   51  A    between atoms: _161  and  _162
REMARK   52  A    between atoms: _161  and  _164
REMARK   53  A    between atoms: _164  and  _165
REMARK   54  A    between atoms: _170  and  _172
REMARK   55  A    between atoms: _172  and  _173
REMARK   56  A    between atoms: _172  and  _175
REMARK   57  A    between atoms: _175  and  _176
REMARK   58  A    between atoms: _176  and  _177
REMARK   59  A    between atoms: _180  and  _182
REMARK   60  A    between atoms: _182  and  _183
REMARK   61  A    between atoms: _182  and  _185
REMARK   62  A    between atoms: _185  and  _186
REMARK   63  A    between atoms: _189  and  _191
REMARK   64  A    between atoms: _191  and  _192
REMARK   65  A    between atoms: _191  and  _194
REMARK   66  A    between atoms: _194  and  _195
REMARK   67  A    between atoms: _196  and  ZN_384
REMARK   68  A    between atoms: _200  and  _202
REMARK   69  A    between atoms: _202  and  _203
REMARK   70  A    between atoms: _202  and  _205
REMARK   71  A    between atoms: _205  and  _206
REMARK   72  A    between atoms: _209  and  _211
REMARK   73  A    between atoms: _211  and  _212
REMARK   74  A    between atoms: _211  and  _214
REMARK   75  A    between atoms: _217  and  _219
REMARK   76  A    between atoms: _219  and  _220
REMARK   77  A    between atoms: _219  and  _222
REMARK   78  A    between atoms: _222  and  _223
REMARK   79  A    between atoms: _228  and  _230
REMARK   80  A    between atoms: _230  and  _231
REMARK   81  A    between atoms: _230  and  _233
REMARK   82  A    between atoms: _233  and  _234
REMARK   83  A    between atoms: _240  and  _242
REMARK   84  A    between atoms: _242  and  _243
REMARK   85  A    between atoms: _242  and  _245
REMARK   86  A    between atoms: _248  and  _250
REMARK   87  A    between atoms: _250  and  _251
REMARK   88  A    between atoms: _250  and  _253
REMARK   89  A    between atoms: _253  and  _254
REMARK   90  A    between atoms: _257  and  _259
REMARK   91  A    between atoms: _259  and  _260
REMARK   92  A    between atoms: _259  and  _262
REMARK   93  A    between atoms: _265  and  _267
REMARK   94  A    between atoms: _267  and  _268
REMARK   95  A    between atoms: _267  and  _270
REMARK   96  A    between atoms: _270  and  _271
REMARK   97  A    between atoms: _273  and  _275
REMARK   98  A    between atoms: _275  and  _276
REMARK   99  A    between atoms: _275  and  _278
REMARK  100  A    between atoms: _278  and  _279
REMARK  101  A    between atoms: _282  and  _284
REMARK  102  A    between atoms: _284  and  _285
REMARK  103  A    between atoms: _284  and  _287
REMARK  104  A    between atoms: _287  and  _288
REMARK  105  A    between atoms: _291  and  _293
REMARK  106  A    between atoms: _293  and  _294
REMARK  107  A    between atoms: _293  and  _296
REMARK  108  A    between atoms: _296  and  _297
REMARK  109  A    between atoms: _301  and  _302
REMARK  110  A    between atoms: _308  and  _309
REMARK  111  A    between atoms: _314  and  _316
REMARK  112  A    between atoms: _316  and  _317
REMARK  113  A    between atoms: _316  and  _319
REMARK  114  A    between atoms: _319  and  _320
REMARK  115  A    between atoms: _323  and  _325
REMARK  116  A    between atoms: _325  and  _326
REMARK  117  A    between atoms: _325  and  _328
REMARK  118  A    between atoms: _328  and  _329
REMARK  119  A    between atoms: _332  and  _334
REMARK  120  A    between atoms: _334  and  _335
REMARK  121  A    between atoms: _334  and  _337
REMARK  122  A    between atoms: _340  and  _342
REMARK  123  A    between atoms: _342  and  _343
REMARK  124  A    between atoms: _342  and  _345
REMARK  125  A    between atoms: _345  and  _346
REMARK  126  A    between atoms: _356  and  _358
REMARK  127  A    between atoms: _358  and  _359
REMARK  128  A    between atoms: _358  and  _361
REMARK  129  A    between atoms: _361  and  _362
REMARK  130  A    between atoms: _367  and  _369
REMARK  131  A    between atoms: _369  and  _370
REMARK  132  A    between atoms: _369  and  _372
REMARK  133  A    between atoms: _372  and  _373
REMARK  134  A    between atoms: _373  and  _374
REMARK  135  A    between atoms: _374  and  _375
REMARK                            x       y       z     vdW  Elec       q    Type
REMARK                         _______ _______ _______ _____ _____    ______ ____
ROOT
ATOM      1  CG  TRP A   1      12.136  -0.243  24.217  0.00  0.00    +0.000 A 
ATOM      2  CD1 TRP A   1      13.357   0.276  24.419  0.00  0.00    +0.000 A 
ATOM      3  NE1 TRP A   1      14.115   0.207  23.244  0.00  0.00    +0.000 N 
ATOM      4  HE1 TRP A   1      15.100   0.521  23.131  0.00  0.00    +0.000 HD
ATOM      5  CE2 TRP A   1      13.324  -0.350  22.264  0.00  0.00    +0.000 A 
ATOM      6  CZ2 TRP A   1      13.604  -0.619  20.941  0.00  0.00    +0.000 A 
ATOM      7  CH2 TRP A   1      12.607  -1.208  20.178  0.00  0.00    +0.000 A 
ATOM      8  CZ3 TRP A   1      11.344  -1.519  20.720  0.00  0.00    +0.000 A 
ATOM      9  CE3 TRP A   1      11.069  -1.247  22.063  0.00  0.00    +0.000 A 
ATOM     10  CD2 TRP A   1      12.080  -0.678  22.858  0.00  0.00    +0.000 A 
ENDROOT
BRANCH   1  11
ATOM     11  CB  TRP A   1      11.028  -0.339  25.239  0.00  0.00    +0.000 C 
BRANCH  11  12
ATOM     12  CA  TRP A   1      10.050   0.843  25.048  0.00  0.00    +0.000 C 
BRANCH  12  13
ATOM     13  N   TRP A   1      10.561   1.993  25.726  0.00  0.00    +0.000 NA
ATOM     14  H   TRP A   1      11.248   1.885  26.500  0.00  0.00    +0.000 HD
ENDBRANCH  12  13
BRANCH  12  15
ATOM     15  C   TRP A   1       8.656   0.428  25.540  0.00  0.00    +0.000 C 
ATOM     16  O   TRP A   1       8.385   0.414  26.744  0.00  0.00    +0.000 OA
ENDBRANCH  12  15
ENDBRANCH  11  12
ENDBRANCH   1  11
TORSDOF 4
REMARK  Name = ../refined-set-2016/4q7s/4q7s_pocket.pdb
REMARK  135 active torsions:
REMARK  status: ('A' for Active; 'I' for Inactive)
REMARK    1  A    between atoms: _1  and  _3
REMARK    2  A    between atoms: _3  and  _4
REMARK    3  A    between atoms: _3  and  _6
REMARK    4  A    between atoms: _6  and  _7
REMARK    5  A    between atoms: _17  and  _19
REMARK    6  A    between atoms: _19  and  _20
REMARK    7  A    between atoms: _19  and  _22
REMARK    8  A    between atoms: _22  and  _23
REMARK    9  A    between atoms: _28  and  _29
REMARK   10  A    between atoms: _31  and  _33
REMARK   11  A    between atoms: _33  and  _34
REMARK   12  A    between atoms: _33  and  _36
REMARK   13  A    between atoms: _36  and  _37
REMARK   14  A    between atoms: _47  and  _49
REMARK   15  A    between atoms: _49  and  _50
REMARK   16  A    between atoms: _49  and  _52
REMARK   17  A    between atoms: _52  and  _53
REMARK   18  A    between atoms: _55  and  _57
REMARK   19  A    between atoms: _57  and  _58
REMARK   20  A    between atoms: _57  and  _60
REMARK   21  A    between atoms: _60  and  _61
REMARK   22  A    between atoms: _66  and  _68
REMARK   23  A    between atoms: _68  and  _69
REMARK   24  A    between atoms: _68  and  _71
REMARK   25  A    between atoms: _71  and  _72
REMARK   26  A    between atoms: _77  and  _79
REMARK   27  A    between atoms: _79  and  _80
REMARK   28  A    between atoms: _83  and  _85
REMARK   29  A    between atoms: _85  and  _86
REMARK   30  A    between atoms: _85  and  _88
REMARK   31  A    between atoms: _88  and  _89
REMARK   32  A    between atoms: _94  and  _96
REMARK   33  A    between atoms: _96  and  _97
REMARK   34  A    between atoms: _96  and  _99
REMARK   35  A    between atoms: _99  and  _100
REMARK   36  A    between atoms: _103  and  _105
REMARK   37  A    between atoms: _105  and  _106
REMARK   38  A    between atoms: _105  and  _108
REMARK   39  A    between atoms: _108  and  _109
REMARK   40  A    between atoms: _109  and  _110
REMARK   41  A    between atoms: _115  and  _117
REMARK   42  A    between atoms: _128  and  _131
REMARK   43  A    between atoms: _131  and  _132
REMARK   44  A    between atoms: _140  and  _141
REMARK   45  A    between atoms: _149  and  _151
REMARK   46  A    between atoms: _151  and  _152
REMARK   47  A    between atoms: _151  and  _154
REMARK   48  A    between atoms: _154  and  _155
REMARK   49  A    between atoms: _155  and  _156
REMARK   50  A    between atoms: _159  and  _161
REMARK   51  A    between atoms: _161  and  _162
REMARK   52  A    between atoms: _161  and  _164
REMARK   53  A    between atoms: _164  and  _165
REMARK   54  A    between atoms: _170  and  _172
REMARK   55  A    between atoms: _172  and  _173
REMARK   56  A    between atoms: _172  and  _175
REMARK   57  A    between atoms: _175  and  _176
REMARK   58  A    between atoms: _176  and  _177
REMARK   59  A    between atoms: _180  and  _182
REMARK   60  A    between atoms: _182  and  _183
REMARK   61  A    between atoms: _182  and  _185
REMARK   62  A    between atoms: _185  and  _186
REMARK   63  A    between atoms: _189  and  _191
REMARK   64  A    between atoms: _191  and  _192
REMARK   65  A    between atoms: _191  and  _194
REMARK   66  A    between atoms: _194  and  _195
REMARK   67  A    between atoms: _196  and  ZN_384
REMARK   68  A    between atoms: _200  and  _202
REMARK   69  A    between atoms: _202  and  _203
REMARK   70  A    between atoms: _202  and  _205
REMARK   71  A    between atoms: _205  and  _206
REMARK   72  A    between atoms: _209  and  _211
REMARK   73  A    between atoms: _211  and  _212
REMARK   74  A    between atoms: _211  and  _214
REMARK   75  A    between atoms: _217  and  _219
REMARK   76  A    between atoms: _219  and  _220
REMARK   77  A    between atoms: _219  and  _222
REMARK   78  A    between atoms: _222  and  _223
REMARK   79  A    between atoms: _228  and  _230
REMARK   80  A    between atoms: _230  and  _231
REMARK   81  A    between atoms: _230  and  _233
REMARK   82  A    between atoms: _233  and  _234
REMARK   83  A    between atoms: _240  and  _242
REMARK   84  A    between atoms: _242  and  _243
REMARK   85  A    between atoms: _242  and  _245
REMARK   86  A    between atoms: _248  and  _250
REMARK   87  A    between atoms: _250  and  _251
REMARK   88  A    between atoms: _250  and  _253
REMARK   89  A    between atoms: _253  and  _254
REMARK   90  A    between atoms: _257  and  _259
REMARK   91  A    between atoms: _259  and  _260
REMARK   92  A    between atoms: _259  and  _262
REMARK   93  A    between atoms: _265  and  _267
REMARK   94  A    between atoms: _267  and  _268
REMARK   95  A    between atoms: _267  and  _270
REMARK   96  A    between atoms: _270  and  _271
REMARK   97  A    between atoms: _273  and  _275
REMARK   98  A    between atoms: _275  and  _276
REMARK   99  A    between atoms: _275  and  _278
REMARK  100  A    between atoms: _278  and  _279
REMARK  101  A    between atoms: _282  and  _284
REMARK  102  A    between atoms: _284  and  _285
REMARK  103  A    between atoms: _284  and  _287
REMARK  104  A    between atoms: _287  and  _288
REMARK  105  A    between atoms: _291  and  _293
REMARK  106  A    between atoms: _293  and  _294
REMARK  107  A    between atoms: _293  and  _296
REMARK  108  A    between atoms: _296  and  _297
REMARK  109  A    between atoms: _301  and  _302
REMARK  110  A    between atoms: _308  and  _309
REMARK  111  A    between atoms: _314  and  _316
REMARK  112  A    between atoms: _316  and  _317
REMARK  113  A    between atoms: _316  and  _319
REMARK  114  A    between atoms: _319  and  _320
REMARK  115  A    between atoms: _323  and  _325
REMARK  116  A    between atoms: _325  and  _326
REMARK  117  A    between atoms: _325  and  _328
REMARK  118  A    between atoms: _328  and  _329
REMARK  119  A    between atoms: _332  and  _334
REMARK  120  A    between atoms: _334  and  _335
REMARK  121  A    between atoms: _334  and  _337
REMARK  122  A    between atoms: _340  and  _342
REMARK  123  A    between atoms: _342  and  _343
REMARK  124  A    between atoms: _342  and  _345
REMARK  125  A    between atoms: _345  and  _346
REMARK  126  A    between atoms: _356  and  _358
REMARK  127  A    between atoms: _358  and  _359
REMARK  128  A    between atoms: _358  and  _361
REMARK  129  A    between atoms: _361  and  _362
REMARK  130  A    between atoms: _367  and  _369
REMARK  131  A    between atoms: _369  and  _370
REMARK  132  A    between atoms: _369  and  _372
REMARK  133  A    between atoms: _372  and  _373
REMARK  134  A    between atoms: _373  and  _374
REMARK  135  A    between atoms: _374  and  _375
REMARK                            x       y       z     vdW  Elec       q    Type
REMARK                         _______ _______ _______ _____ _____    ______ ____
ROOT
ATOM      1  CB  ASN A   1      19.067  -7.391  10.495  0.00  0.00    +0.000 C 
ENDROOT
BRANCH   1   2
ATOM      2  CG  ASN A   1      17.586  -7.574  10.211  0.00  0.00    +0.000 C 
ATOM      3  OD1 ASN A   1      16.979  -8.549  10.706  0.00  0.00    +0.000 OA
ATOM      4  ND2 ASN A   1      16.969  -6.614   9.425  0.00  0.00    +0.000 N 
ATOM      5 HD21 ASN A   1      15.952  -6.684   9.221  0.00  0.00    +0.000 HD
ATOM      6 HD22 ASN A   1      17.523  -5.823   9.039  0.00  0.00    +0.000 HD
ENDBRANCH   1   2
BRANCH   1   7
ATOM      7  CA  ASN A   1      19.579  -8.325  11.623  0.00  0.00    +0.000 C 
BRANCH   7   8
ATOM      8  N   ASN A   1      19.268  -9.748  11.353  0.00  0.00    +0.000 NA
ATOM      9  H   ASN A   1      18.362  -9.981  10.898  0.00  0.00    +0.000 HD
ENDBRANCH   7   8
BRANCH   7  10
ATOM     10  C   ASN A   1      18.958  -7.964  12.966  0.00  0.00    +0.000 C 
ATOM     11  O   ASN A   1      18.169  -7.050  13.054  0.00  0.00    +0.000 OA
ENDBRANCH   7  10
ENDBRANCH   1   7
TORSDOF 4
REMARK  Name = ../refined-set-2016/4q7s/4q7s_pocket.pdb
REMARK  135 active torsions:
REMARK  status: ('A' for Active; 'I' for Inactive)
REMARK    1  A    between atoms: _1  and  _3
REMARK    2  A    between atoms: _3  and  _4
REMARK    3  A    between atoms: _3  and  _6
REMARK    4  A    between atoms: _6  and  _7
REMARK    5  A    between atoms: _17  and  _19
REMARK    6  A    between atoms: _19  and  _20
REMARK    7  A    between atoms: _19  and  _22
REMARK    8  A    between atoms: _22  and  _23
REMARK    9  A    between atoms: _28  and  _29
REMARK   10  A    between atoms: _31  and  _33
REMARK   11  A    between atoms: _33  and  _34
REMARK   12  A    between atoms: _33  and  _36
REMARK   13  A    between atoms: _36  and  _37
REMARK   14  A    between atoms: _47  and  _49
REMARK   15  A    between atoms: _49  and  _50
REMARK   16  A    between atoms: _49  and  _52
REMARK   17  A    between atoms: _52  and  _53
REMARK   18  A    between atoms: _55  and  _57
REMARK   19  A    between atoms: _57  and  _58
REMARK   20  A    between atoms: _57  and  _60
REMARK   21  A    between atoms: _60  and  _61
REMARK   22  A    between atoms: _66  and  _68
REMARK   23  A    between atoms: _68  and  _69
REMARK   24  A    between atoms: _68  and  _71
REMARK   25  A    between atoms: _71  and  _72
REMARK   26  A    between atoms: _77  and  _79
REMARK   27  A    between atoms: _79  and  _80
REMARK   28  A    between atoms: _83  and  _85
REMARK   29  A    between atoms: _85  and  _86
REMARK   30  A    between atoms: _85  and  _88
REMARK   31  A    between atoms: _88  and  _89
REMARK   32  A    between atoms: _94  and  _96
REMARK   33  A    between atoms: _96  and  _97
REMARK   34  A    between atoms: _96  and  _99
REMARK   35  A    between atoms: _99  and  _100
REMARK   36  A    between atoms: _103  and  _105
REMARK   37  A    between atoms: _105  and  _106
REMARK   38  A    between atoms: _105  and  _108
REMARK   39  A    between atoms: _108  and  _109
REMARK   40  A    between atoms: _109  and  _110
REMARK   41  A    between atoms: _115  and  _117
REMARK   42  A    between atoms: _128  and  _131
REMARK   43  A    between atoms: _131  and  _132
REMARK   44  A    between atoms: _140  and  _141
REMARK   45  A    between atoms: _149  and  _151
REMARK   46  A    between atoms: _151  and  _152
REMARK   47  A    between atoms: _151  and  _154
REMARK   48  A    between atoms: _154  and  _155
REMARK   49  A    between atoms: _155  and  _156
REMARK   50  A    between atoms: _159  and  _161
REMARK   51  A    between atoms: _161  and  _162
REMARK   52  A    between atoms: _161  and  _164
REMARK   53  A    between atoms: _164  and  _165
REMARK   54  A    between atoms: _170  and  _172
REMARK   55  A    between atoms: _172  and  _173
REMARK   56  A    between atoms: _172  and  _175
REMARK   57  A    between atoms: _175  and  _176
REMARK   58  A    between atoms: _176  and  _177
REMARK   59  A    between atoms: _180  and  _182
REMARK   60  A    between atoms: _182  and  _183
REMARK   61  A    between atoms: _182  and  _185
REMARK   62  A    between atoms: _185  and  _186
REMARK   63  A    between atoms: _189  and  _191
REMARK   64  A    between atoms: _191  and  _192
REMARK   65  A    between atoms: _191  and  _194
REMARK   66  A    between atoms: _194  and  _195
REMARK   67  A    between atoms: _196  and  ZN_384
REMARK   68  A    between atoms: _200  and  _202
REMARK   69  A    between atoms: _202  and  _203
REMARK   70  A    between atoms: _202  and  _205
REMARK   71  A    between atoms: _205  and  _206
REMARK   72  A    between atoms: _209  and  _211
REMARK   73  A    between atoms: _211  and  _212
REMARK   74  A    between atoms: _211  and  _214
REMARK   75  A    between atoms: _217  and  _219
REMARK   76  A    between atoms: _219  and  _220
REMARK   77  A    between atoms: _219  and  _222
REMARK   78  A    between atoms: _222  and  _223
REMARK   79  A    between atoms: _228  and  _230
REMARK   80  A    between atoms: _230  and  _231
REMARK   81  A    between atoms: _230  and  _233
REMARK   82  A    between atoms: _233  and  _234
REMARK   83  A    between atoms: _240  and  _242
REMARK   84  A    between atoms: _242  and  _243
REMARK   85  A    between atoms: _242  and  _245
REMARK   86  A    between atoms: _248  and  _250
REMARK   87  A    between atoms: _250  and  _251
REMARK   88  A    between atoms: _250  and  _253
REMARK   89  A    between atoms: _253  and  _254
REMARK   90  A    between atoms: _257  and  _259
REMARK   91  A    between atoms: _259  and  _260
REMARK   92  A    between atoms: _259  and  _262
REMARK   93  A    between atoms: _265  and  _267
REMARK   94  A    between atoms: _267  and  _268
REMARK   95  A    between atoms: _267  and  _270
REMARK   96  A    between atoms: _270  and  _271
REMARK   97  A    between atoms: _273  and  _275
REMARK   98  A    between atoms: _275  and  _276
REMARK   99  A    between atoms: _275  and  _278
REMARK  100  A    between atoms: _278  and  _279
REMARK  101  A    between atoms: _282  and  _284
REMARK  102  A    between atoms: _284  and  _285
REMARK  103  A    between atoms: _284  and  _287
REMARK  104  A    between atoms: _287  and  _288
REMARK  105  A    between atoms: _291  and  _293
REMARK  106  A    between atoms: _293  and  _294
REMARK  107  A    between atoms: _293  and  _296
REMARK  108  A    between atoms: _296  and  _297
REMARK  109  A    between atoms: _301  and  _302
REMARK  110  A    between atoms: _308  and  _309
REMARK  111  A    between atoms: _314  and  _316
REMARK  112  A    between atoms: _316  and  _317
REMARK  113  A    between atoms: _316  and  _319
REMARK  114  A    between atoms: _319  and  _320
REMARK  115  A    between atoms: _323  and  _325
REMARK  116  A    between atoms: _325  and  _326
REMARK  117  A    between atoms: _325  and  _328
REMARK  118  A    between atoms: _328  and  _329
REMARK  119  A    between atoms: _332  and  _334
REMARK  120  A    between atoms: _334  and  _335
REMARK  121  A    between atoms: _334  and  _337
REMARK  122  A    between atoms: _340  and  _342
REMARK  123  A    between atoms: _342  and  _343
REMARK  124  A    between atoms: _342  and  _345
REMARK  125  A    between atoms: _345  and  _346
REMARK  126  A    between atoms: _356  and  _358
REMARK  127  A    between atoms: _358  and  _359
REMARK  128  A    between atoms: _358  and  _361
REMARK  129  A    between atoms: _361  and  _362
REMARK  130  A    between atoms: _367  and  _369
REMARK  131  A    between atoms: _369  and  _370
REMARK  132  A    between atoms: _369  and  _372
REMARK  133  A    between atoms: _372  and  _373
REMARK  134  A    between atoms: _373  and  _374
REMARK  135  A    between atoms: _374  and  _375
REMARK                            x       y       z     vdW  Elec       q    Type
REMARK                         _______ _______ _______ _____ _____    ______ ____
ROOT
ATOM      1  NE  ARG A   1      23.297  -4.124  21.269  0.00  0.00    +0.330 N 
ATOM      2  CZ  ARG A   1      23.451  -3.107  22.105  0.00  0.00    +0.000 C 
ATOM      3  NH2 ARG A   1      24.668  -2.869  22.628  0.00  0.00    +0.330 N 
ATOM      4 HH21 ARG A   1      24.805  -2.075  23.285  0.00  0.00    +0.000 HD
ATOM      5 HH22 ARG A   1      25.471  -3.479  22.375  0.00  0.00    +0.000 HD
ATOM      6  NH1 ARG A   1      22.415  -2.308  22.414  0.00  0.00    +0.330 N 
ATOM      7 HH11 ARG A   1      22.549  -1.513  23.071  0.00  0.00    +0.000 HD
ATOM      8 HH12 ARG A   1      21.479  -2.485  21.996  0.00  0.00    +0.000 HD
ATOM      9  HE  ARG A   1      24.133  -4.712  21.078  0.00  0.00    +0.000 HD
ENDROOT
BRANCH   1  10
ATOM     10  CD  ARG A   1      22.010  -4.505  20.567  0.00  0.00    +0.000 C 
BRANCH  10  11
ATOM     11  CG  ARG A   1      22.163  -5.860  19.893  0.00  0.00    +0.000 C 
BRANCH  11  12
ATOM     12  CB  ARG A   1      21.097  -6.109  18.786  0.00  0.00    +0.000 C 
BRANCH  12  13
ATOM     13  CA  ARG A   1      20.907  -7.584  18.378  0.00  0.00    +0.000 C 
BRANCH  13  14
ATOM     14  N   ARG A   1      19.937  -7.638  17.291  0.00  0.00    +0.000 NA
ATOM     15  H   ARG A   1      19.112  -7.007  17.335  0.00  0.00    +0.000 HD
ENDBRANCH  13  14
BRANCH  13  16
ATOM     16  C   ARG A   1      20.416  -8.426  19.531  0.00  0.00    +0.000 C 
ATOM     17  O   ARG A   1      19.226  -8.428  19.808  0.00  0.00    +0.000 OA
ENDBRANCH  13  16
ENDBRANCH  12  13
ENDBRANCH  11  12
ENDBRANCH  10  11
ENDBRANCH   1  10
TORSDOF 6
REMARK  Name = ../refined-set-2016/4q7s/4q7s_pocket.pdb
REMARK  135 active torsions:
REMARK  status: ('A' for Active; 'I' for Inactive)
REMARK    1  A    between atoms: _1  and  _3
REMARK    2  A    between atoms: _3  and  _4
REMARK    3  A    between atoms: _3  and  _6
REMARK    4  A    between atoms: _6  and  _7
REMARK    5  A    between atoms: _17  and  _19
REMARK    6  A    between atoms: _19  and  _20
REMARK    7  A    between atoms: _19  and  _22
REMARK    8  A    between atoms: _22  and  _23
REMARK    9  A    between atoms: _28  and  _29
REMARK   10  A    between atoms: _31  and  _33
REMARK   11  A    between atoms: _33  and  _34
REMARK   12  A    between atoms: _33  and  _36
REMARK   13  A    between atoms: _36  and  _37
REMARK   14  A    between atoms: _47  and  _49
REMARK   15  A    between atoms: _49  and  _50
REMARK   16  A    between atoms: _49  and  _52
REMARK   17  A    between atoms: _52  and  _53
REMARK   18  A    between atoms: _55  and  _57
REMARK   19  A    between atoms: _57  and  _58
REMARK   20  A    between atoms: _57  and  _60
REMARK   21  A    between atoms: _60  and  _61
REMARK   22  A    between atoms: _66  and  _68
REMARK   23  A    between atoms: _68  and  _69
REMARK   24  A    between atoms: _68  and  _71
REMARK   25  A    between atoms: _71  and  _72
REMARK   26  A    between atoms: _77  and  _79
REMARK   27  A    between atoms: _79  and  _80
REMARK   28  A    between atoms: _83  and  _85
REMARK   29  A    between atoms: _85  and  _86
REMARK   30  A    between atoms: _85  and  _88
REMARK   31  A    between atoms: _88  and  _89
REMARK   32  A    between atoms: _94  and  _96
REMARK   33  A    between atoms: _96  and  _97
REMARK   34  A    between atoms: _96  and  _99
REMARK   35  A    between atoms: _99  and  _100
REMARK   36  A    between atoms: _103  and  _105
REMARK   37  A    between atoms: _105  and  _106
REMARK   38  A    between atoms: _105  and  _108
REMARK   39  A    between atoms: _108  and  _109
REMARK   40  A    between atoms: _109  and  _110
REMARK   41  A    between atoms: _115  and  _117
REMARK   42  A    between atoms: _128  and  _131
REMARK   43  A    between atoms: _131  and  _132
REMARK   44  A    between atoms: _140  and  _141
REMARK   45  A    between atoms: _149  and  _151
REMARK   46  A    between atoms: _151  and  _152
REMARK   47  A    between atoms: _151  and  _154
REMARK   48  A    between atoms: _154  and  _155
REMARK   49  A    between atoms: _155  and  _156
REMARK   50  A    between atoms: _159  and  _161
REMARK   51  A    between atoms: _161  and  _162
REMARK   52  A    between atoms: _161  and  _164
REMARK   53  A    between atoms: _164  and  _165
REMARK   54  A    between atoms: _170  and  _172
REMARK   55  A    between atoms: _172  and  _173
REMARK   56  A    between atoms: _172  and  _175
REMARK   57  A    between atoms: _175  and  _176
REMARK   58  A    between atoms: _176  and  _177
REMARK   59  A    between atoms: _180  and  _182
REMARK   60  A    between atoms: _182  and  _183
REMARK   61  A    between atoms: _182  and  _185
REMARK   62  A    between atoms: _185  and  _186
REMARK   63  A    between atoms: _189  and  _191
REMARK   64  A    between atoms: _191  and  _192
REMARK   65  A    between atoms: _191  and  _194
REMARK   66  A    between atoms: _194  and  _195
REMARK   67  A    between atoms: _196  and  ZN_384
REMARK   68  A    between atoms: _200  and  _202
REMARK   69  A    between atoms: _202  and  _203
REMARK   70  A    between atoms: _202  and  _205
REMARK   71  A    between atoms: _205  and  _206
REMARK   72  A    between atoms: _209  and  _211
REMARK   73  A    between atoms: _211  and  _212
REMARK   74  A    between atoms: _211  and  _214
REMARK   75  A    between atoms: _217  and  _219
REMARK   76  A    between atoms: _219  and  _220
REMARK   77  A    between atoms: _219  and  _222
REMARK   78  A    between atoms: _222  and  _223
REMARK   79  A    between atoms: _228  and  _230
REMARK   80  A    between atoms: _230  and  _231
REMARK   81  A    between atoms: _230  and  _233
REMARK   82  A    between atoms: _233  and  _234
REMARK   83  A    between atoms: _240  and  _242
REMARK   84  A    between atoms: _242  and  _243
REMARK   85  A    between atoms: _242  and  _245
REMARK   86  A    between atoms: _248  and  _250
REMARK   87  A    between atoms: _250  and  _251
REMARK   88  A    between atoms: _250  and  _253
REMARK   89  A    between atoms: _253  and  _254
REMARK   90  A    between atoms: _257  and  _259
REMARK   91  A    between atoms: _259  and  _260
REMARK   92  A    between atoms: _259  and  _262
REMARK   93  A    between atoms: _265  and  _267
REMARK   94  A    between atoms: _267  and  _268
REMARK   95  A    between atoms: _267  and  _270
REMARK   96  A    between atoms: _270  and  _271
REMARK   97  A    between atoms: _273  and  _275
REMARK   98  A    between atoms: _275  and  _276
REMARK   99  A    between atoms: _275  and  _278
REMARK  100  A    between atoms: _278  and  _279
REMARK  101  A    between atoms: _282  and  _284
REMARK  102  A    between atoms: _284  and  _285
REMARK  103  A    between atoms: _284  and  _287
REMARK  104  A    between atoms: _287  and  _288
REMARK  105  A    between atoms: _291  and  _293
REMARK  106  A    between atoms: _293  and  _294
REMARK  107  A    between atoms: _293  and  _296
REMARK  108  A    between atoms: _296  and  _297
REMARK  109  A    between atoms: _301  and  _302
REMARK  110  A    between atoms: _308  and  _309
REMARK  111  A    between atoms: _314  and  _316
REMARK  112  A    between atoms: _316  and  _317
REMARK  113  A    between atoms: _316  and  _319
REMARK  114  A    between atoms: _319  and  _320
REMARK  115  A    between atoms: _323  and  _325
REMARK  116  A    between atoms: _325  and  _326
REMARK  117  A    between atoms: _325  and  _328
REMARK  118  A    between atoms: _328  and  _329
REMARK  119  A    between atoms: _332  and  _334
REMARK  120  A    between atoms: _334  and  _335
REMARK  121  A    between atoms: _334  and  _337
REMARK  122  A    between atoms: _340  and  _342
REMARK  123  A    between atoms: _342  and  _343
REMARK  124  A    between atoms: _342  and  _345
REMARK  125  A    between atoms: _345  and  _346
REMARK  126  A    between atoms: _356  and  _358
REMARK  127  A    between atoms: _358  and  _359
REMARK  128  A    between atoms: _358  and  _361
REMARK  129  A    between atoms: _361  and  _362
REMARK  130  A    between atoms: _367  and  _369
REMARK  131  A    between atoms: _369  and  _370
REMARK  132  A    between atoms: _369  and  _372
REMARK  133  A    between atoms: _372  and  _373
REMARK  134  A    between atoms: _373  and  _374
REMARK  135  A    between atoms: _374  and  _375
REMARK                            x       y       z     vdW  Elec       q    Type
REMARK                         _______ _______ _______ _____ _____    ______ ____
ROOT
ATOM      1  O   HOH     1      18.500  -3.444  11.490  0.00  0.00    +0.000 OA
ENDROOT
TORSDOF 0
REMARK  Name = ../refined-set-2016/4q7s/4q7s_pocket.pdb
REMARK  135 active torsions:
REMARK  status: ('A' for Active; 'I' for Inactive)
REMARK    1  A    between atoms: _1  and  _3
REMARK    2  A    between atoms: _3  and  _4
REMARK    3  A    between atoms: _3  and  _6
REMARK    4  A    between atoms: _6  and  _7
REMARK    5  A    between atoms: _17  and  _19
REMARK    6  A    between atoms: _19  and  _20
REMARK    7  A    between atoms: _19  and  _22
REMARK    8  A    between atoms: _22  and  _23
REMARK    9  A    between atoms: _28  and  _29
REMARK   10  A    between atoms: _31  and  _33
REMARK   11  A    between atoms: _33  and  _34
REMARK   12  A    between atoms: _33  and  _36
REMARK   13  A    between atoms: _36  and  _37
REMARK   14  A    between atoms: _47  and  _49
REMARK   15  A    between atoms: _49  and  _50
REMARK   16  A    between atoms: _49  and  _52
REMARK   17  A    between atoms: _52  and  _53
REMARK   18  A    between atoms: _55  and  _57
REMARK   19  A    between atoms: _57  and  _58
REMARK   20  A    between atoms: _57  and  _60
REMARK   21  A    between atoms: _60  and  _61
REMARK   22  A    between atoms: _66  and  _68
REMARK   23  A    between atoms: _68  and  _69
REMARK   24  A    between atoms: _68  and  _71
REMARK   25  A    between atoms: _71  and  _72
REMARK   26  A    between atoms: _77  and  _79
REMARK   27  A    between atoms: _79  and  _80
REMARK   28  A    between atoms: _83  and  _85
REMARK   29  A    between atoms: _85  and  _86
REMARK   30  A    between atoms: _85  and  _88
REMARK   31  A    between atoms: _88  and  _89
REMARK   32  A    between atoms: _94  and  _96
REMARK   33  A    between atoms: _96  and  _97
REMARK   34  A    between atoms: _96  and  _99
REMARK   35  A    between atoms: _99  and  _100
REMARK   36  A    between atoms: _103  and  _105
REMARK   37  A    between atoms: _105  and  _106
REMARK   38  A    between atoms: _105  and  _108
REMARK   39  A    between atoms: _108  and  _109
REMARK   40  A    between atoms: _109  and  _110
REMARK   41  A    between atoms: _115  and  _117
REMARK   42  A    between atoms: _128  and  _131
REMARK   43  A    between atoms: _131  and  _132
REMARK   44  A    between atoms: _140  and  _141
REMARK   45  A    between atoms: _149  and  _151
REMARK   46  A    between atoms: _151  and  _152
REMARK   47  A    between atoms: _151  and  _154
REMARK   48  A    between atoms: _154  and  _155
REMARK   49  A    between atoms: _155  and  _156
REMARK   50  A    between atoms: _159  and  _161
REMARK   51  A    between atoms: _161  and  _162
REMARK   52  A    between atoms: _161  and  _164
REMARK   53  A    between atoms: _164  and  _165
REMARK   54  A    between atoms: _170  and  _172
REMARK   55  A    between atoms: _172  and  _173
REMARK   56  A    between atoms: _172  and  _175
REMARK   57  A    between atoms: _175  and  _176
REMARK   58  A    between atoms: _176  and  _177
REMARK   59  A    between atoms: _180  and  _182
REMARK   60  A    between atoms: _182  and  _183
REMARK   61  A    between atoms: _182  and  _185
REMARK   62  A    between atoms: _185  and  _186
REMARK   63  A    between atoms: _189  and  _191
REMARK   64  A    between atoms: _191  and  _192
REMARK   65  A    between atoms: _191  and  _194
REMARK   66  A    between atoms: _194  and  _195
REMARK   67  A    between atoms: _196  and  ZN_384
REMARK   68  A    between atoms: _200  and  _202
REMARK   69  A    between atoms: _202  and  _203
REMARK   70  A    between atoms: _202  and  _205
REMARK   71  A    between atoms: _205  and  _206
REMARK   72  A    between atoms: _209  and  _211
REMARK   73  A    between atoms: _211  and  _212
REMARK   74  A    between atoms: _211  and  _214
REMARK   75  A    between atoms: _217  and  _219
REMARK   76  A    between atoms: _219  and  _220
REMARK   77  A    between atoms: _219  and  _222
REMARK   78  A    between atoms: _222  and  _223
REMARK   79  A    between atoms: _228  and  _230
REMARK   80  A    between atoms: _230  and  _231
REMARK   81  A    between atoms: _230  and  _233
REMARK   82  A    between atoms: _233  and  _234
REMARK   83  A    between atoms: _240  and  _242
REMARK   84  A    between atoms: _242  and  _243
REMARK   85  A    between atoms: _242  and  _245
REMARK   86  A    between atoms: _248  and  _250
REMARK   87  A    between atoms: _250  and  _251
REMARK   88  A    between atoms: _250  and  _253
REMARK   89  A    between atoms: _253  and  _254
REMARK   90  A    between atoms: _257  and  _259
REMARK   91  A    between atoms: _259  and  _260
REMARK   92  A    between atoms: _259  and  _262
REMARK   93  A    between atoms: _265  and  _267
REMARK   94  A    between atoms: _267  and  _268
REMARK   95  A    between atoms: _267  and  _270
REMARK   96  A    between atoms: _270  and  _271
REMARK   97  A    between atoms: _273  and  _275
REMARK   98  A    between atoms: _275  and  _276
REMARK   99  A    between atoms: _275  and  _278
REMARK  100  A    between atoms: _278  and  _279
REMARK  101  A    between atoms: _282  and  _284
REMARK  102  A    between atoms: _284  and  _285
REMARK  103  A    between atoms: _284  and  _287
REMARK  104  A    between atoms: _287  and  _288
REMARK  105  A    between atoms: _291  and  _293
REMARK  106  A    between atoms: _293  and  _294
REMARK  107  A    between atoms: _293  and  _296
REMARK  108  A    between atoms: _296  and  _297
REMARK  109  A    between atoms: _301  and  _302
REMARK  110  A    between atoms: _308  and  _309
REMARK  111  A    between atoms: _314  and  _316
REMARK  112  A    between atoms: _316  and  _317
REMARK  113  A    between atoms: _316  and  _319
REMARK  114  A    between atoms: _319  and  _320
REMARK  115  A    between atoms: _323  and  _325
REMARK  116  A    between atoms: _325  and  _326
REMARK  117  A    between atoms: _325  and  _328
REMARK  118  A    between atoms: _328  and  _329
REMARK  119  A    between atoms: _332  and  _334
REMARK  120  A    between atoms: _334  and  _335
REMARK  121  A    between atoms: _334  and  _337
REMARK  122  A    between atoms: _340  and  _342
REMARK  123  A    between atoms: _342  and  _343
REMARK  124  A    between atoms: _342  and  _345
REMARK  125  A    between atoms: _345  and  _346
REMARK  126  A    between atoms: _356  and  _358
REMARK  127  A    between atoms: _358  and  _359
REMARK  128  A    between atoms: _358  and  _361
REMARK  129  A    between atoms: _361  and  _362
REMARK  130  A    between atoms: _367  and  _369
REMARK  131  A    between atoms: _369  and  _370
REMARK  132  A    between atoms: _369  and  _372
REMARK  133  A    between atoms: _372  and  _373
REMARK  134  A    between atoms: _373  and  _374
REMARK  135  A    between atoms: _374  and  _375
REMARK                            x       y       z     vdW  Elec       q    Type
REMARK                         _______ _______ _______ _____ _____    ______ ____
ROOT
ATOM      1  O   HOH     1      19.807  -4.392  15.695  0.00  0.00    +0.000 OA
ENDROOT
TORSDOF 0
REMARK  Name = ../refined-set-2016/4q7s/4q7s_pocket.pdb
REMARK  135 active torsions:
REMARK  status: ('A' for Active; 'I' for Inactive)
REMARK    1  A    between atoms: _1  and  _3
REMARK    2  A    between atoms: _3  and  _4
REMARK    3  A    between atoms: _3  and  _6
REMARK    4  A    between atoms: _6  and  _7
REMARK    5  A    between atoms: _17  and  _19
REMARK    6  A    between atoms: _19  and  _20
REMARK    7  A    between atoms: _19  and  _22
REMARK    8  A    between atoms: _22  and  _23
REMARK    9  A    between atoms: _28  and  _29
REMARK   10  A    between atoms: _31  and  _33
REMARK   11  A    between atoms: _33  and  _34
REMARK   12  A    between atoms: _33  and  _36
REMARK   13  A    between atoms: _36  and  _37
REMARK   14  A    between atoms: _47  and  _49
REMARK   15  A    between atoms: _49  and  _50
REMARK   16  A    between atoms: _49  and  _52
REMARK   17  A    between atoms: _52  and  _53
REMARK   18  A    between atoms: _55  and  _57
REMARK   19  A    between atoms: _57  and  _58
REMARK   20  A    between atoms: _57  and  _60
REMARK   21  A    between atoms: _60  and  _61
REMARK   22  A    between atoms: _66  and  _68
REMARK   23  A    between atoms: _68  and  _69
REMARK   24  A    between atoms: _68  and  _71
REMARK   25  A    between atoms: _71  and  _72
REMARK   26  A    between atoms: _77  and  _79
REMARK   27  A    between atoms: _79  and  _80
REMARK   28  A    between atoms: _83  and  _85
REMARK   29  A    between atoms: _85  and  _86
REMARK   30  A    between atoms: _85  and  _88
REMARK   31  A    between atoms: _88  and  _89
REMARK   32  A    between atoms: _94  and  _96
REMARK   33  A    between atoms: _96  and  _97
REMARK   34  A    between atoms: _96  and  _99
REMARK   35  A    between atoms: _99  and  _100
REMARK   36  A    between atoms: _103  and  _105
REMARK   37  A    between atoms: _105  and  _106
REMARK   38  A    between atoms: _105  and  _108
REMARK   39  A    between atoms: _108  and  _109
REMARK   40  A    between atoms: _109  and  _110
REMARK   41  A    between atoms: _115  and  _117
REMARK   42  A    between atoms: _128  and  _131
REMARK   43  A    between atoms: _131  and  _132
REMARK   44  A    between atoms: _140  and  _141
REMARK   45  A    between atoms: _149  and  _151
REMARK   46  A    between atoms: _151  and  _152
REMARK   47  A    between atoms: _151  and  _154
REMARK   48  A    between atoms: _154  and  _155
REMARK   49  A    between atoms: _155  and  _156
REMARK   50  A    between atoms: _159  and  _161
REMARK   51  A    between atoms: _161  and  _162
REMARK   52  A    between atoms: _161  and  _164
REMARK   53  A    between atoms: _164  and  _165
REMARK   54  A    between atoms: _170  and  _172
REMARK   55  A    between atoms: _172  and  _173
REMARK   56  A    between atoms: _172  and  _175
REMARK   57  A    between atoms: _175  and  _176
REMARK   58  A    between atoms: _176  and  _177
REMARK   59  A    between atoms: _180  and  _182
REMARK   60  A    between atoms: _182  and  _183
REMARK   61  A    between atoms: _182  and  _185
REMARK   62  A    between atoms: _185  and  _186
REMARK   63  A    between atoms: _189  and  _191
REMARK   64  A    between atoms: _191  and  _192
REMARK   65  A    between atoms: _191  and  _194
REMARK   66  A    between atoms: _194  and  _195
REMARK   67  A    between atoms: _196  and  ZN_384
REMARK   68  A    between atoms: _200  and  _202
REMARK   69  A    between atoms: _202  and  _203
REMARK   70  A    between atoms: _202  and  _205
REMARK   71  A    between atoms: _205  and  _206
REMARK   72  A    between atoms: _209  and  _211
REMARK   73  A    between atoms: _211  and  _212
REMARK   74  A    between atoms: _211  and  _214
REMARK   75  A    between atoms: _217  and  _219
REMARK   76  A    between atoms: _219  and  _220
REMARK   77  A    between atoms: _219  and  _222
REMARK   78  A    between atoms: _222  and  _223
REMARK   79  A    between atoms: _228  and  _230
REMARK   80  A    between atoms: _230  and  _231
REMARK   81  A    between atoms: _230  and  _233
REMARK   82  A    between atoms: _233  and  _234
REMARK   83  A    between atoms: _240  and  _242
REMARK   84  A    between atoms: _242  and  _243
REMARK   85  A    between atoms: _242  and  _245
REMARK   86  A    between atoms: _248  and  _250
REMARK   87  A    between atoms: _250  and  _251
REMARK   88  A    between atoms: _250  and  _253
REMARK   89  A    between atoms: _253  and  _254
REMARK   90  A    between atoms: _257  and  _259
REMARK   91  A    between atoms: _259  and  _260
REMARK   92  A    between atoms: _259  and  _262
REMARK   93  A    between atoms: _265  and  _267
REMARK   94  A    between atoms: _267  and  _268
REMARK   95  A    between atoms: _267  and  _270
REMARK   96  A    between atoms: _270  and  _271
REMARK   97  A    between atoms: _273  and  _275
REMARK   98  A    between atoms: _275  and  _276
REMARK   99  A    between atoms: _275  and  _278
REMARK  100  A    between atoms: _278  and  _279
REMARK  101  A    between atoms: _282  and  _284
REMARK  102  A    between atoms: _284  and  _285
REMARK  103  A    between atoms: _284  and  _287
REMARK  104  A    between atoms: _287  and  _288
REMARK  105  A    between atoms: _291  and  _293
REMARK  106  A    between atoms: _293  and  _294
REMARK  107  A    between atoms: _293  and  _296
REMARK  108  A    between atoms: _296  and  _297
REMARK  109  A    between atoms: _301  and  _302
REMARK  110  A    between atoms: _308  and  _309
REMARK  111  A    between atoms: _314  and  _316
REMARK  112  A    between atoms: _316  and  _317
REMARK  113  A    between atoms: _316  and  _319
REMARK  114  A    between atoms: _319  and  _320
REMARK  115  A    between atoms: _323  and  _325
REMARK  116  A    between atoms: _325  and  _326
REMARK  117  A    between atoms: _325  and  _328
REMARK  118  A    between atoms: _328  and  _329
REMARK  119  A    between atoms: _332  and  _334
REMARK  120  A    between atoms: _334  and  _335
REMARK  121  A    between atoms: _334  and  _337
REMARK  122  A    between atoms: _340  and  _342
REMARK  123  A    between atoms: _342  and  _343
REMARK  124  A    between atoms: _342  and  _345
REMARK  125  A    between atoms: _345  and  _346
REMARK  126  A    between atoms: _356  and  _358
REMARK  127  A    between atoms: _358  and  _359
REMARK  128  A    between atoms: _358  and  _361
REMARK  129  A    between atoms: _361  and  _362
REMARK  130  A    between atoms: _367  and  _369
REMARK  131  A    between atoms: _369  and  _370
REMARK  132  A    between atoms: _369  and  _372
REMARK  133  A    between atoms: _372  and  _373
REMARK  134  A    between atoms: _373  and  _374
REMARK  135  A    between atoms: _374  and  _375
REMARK                            x       y       z     vdW  Elec       q    Type
REMARK                         _______ _______ _______ _____ _____    ______ ____
ROOT
ATOM      1  O   HOH     1      15.709   0.851  10.480  0.00  0.00    +0.000 OA
ENDROOT
TORSDOF 0
REMARK  Name = ../refined-set-2016/4q7s/4q7s_pocket.pdb
REMARK  135 active torsions:
REMARK  status: ('A' for Active; 'I' for Inactive)
REMARK    1  A    between atoms: _1  and  _3
REMARK    2  A    between atoms: _3  and  _4
REMARK    3  A    between atoms: _3  and  _6
REMARK    4  A    between atoms: _6  and  _7
REMARK    5  A    between atoms: _17  and  _19
REMARK    6  A    between atoms: _19  and  _20
REMARK    7  A    between atoms: _19  and  _22
REMARK    8  A    between atoms: _22  and  _23
REMARK    9  A    between atoms: _28  and  _29
REMARK   10  A    between atoms: _31  and  _33
REMARK   11  A    between atoms: _33  and  _34
REMARK   12  A    between atoms: _33  and  _36
REMARK   13  A    between atoms: _36  and  _37
REMARK   14  A    between atoms: _47  and  _49
REMARK   15  A    between atoms: _49  and  _50
REMARK   16  A    between atoms: _49  and  _52
REMARK   17  A    between atoms: _52  and  _53
REMARK   18  A    between atoms: _55  and  _57
REMARK   19  A    between atoms: _57  and  _58
REMARK   20  A    between atoms: _57  and  _60
REMARK   21  A    between atoms: _60  and  _61
REMARK   22  A    between atoms: _66  and  _68
REMARK   23  A    between atoms: _68  and  _69
REMARK   24  A    between atoms: _68  and  _71
REMARK   25  A    between atoms: _71  and  _72
REMARK   26  A    between atoms: _77  and  _79
REMARK   27  A    between atoms: _79  and  _80
REMARK   28  A    between atoms: _83  and  _85
REMARK   29  A    between atoms: _85  and  _86
REMARK   30  A    between atoms: _85  and  _88
REMARK   31  A    between atoms: _88  and  _89
REMARK   32  A    between atoms: _94  and  _96
REMARK   33  A    between atoms: _96  and  _97
REMARK   34  A    between atoms: _96  and  _99
REMARK   35  A    between atoms: _99  and  _100
REMARK   36  A    between atoms: _103  and  _105
REMARK   37  A    between atoms: _105  and  _106
REMARK   38  A    between atoms: _105  and  _108
REMARK   39  A    between atoms: _108  and  _109
REMARK   40  A    between atoms: _109  and  _110
REMARK   41  A    between atoms: _115  and  _117
REMARK   42  A    between atoms: _128  and  _131
REMARK   43  A    between atoms: _131  and  _132
REMARK   44  A    between atoms: _140  and  _141
REMARK   45  A    between atoms: _149  and  _151
REMARK   46  A    between atoms: _151  and  _152
REMARK   47  A    between atoms: _151  and  _154
REMARK   48  A    between atoms: _154  and  _155
REMARK   49  A    between atoms: _155  and  _156
REMARK   50  A    between atoms: _159  and  _161
REMARK   51  A    between atoms: _161  and  _162
REMARK   52  A    between atoms: _161  and  _164
REMARK   53  A    between atoms: _164  and  _165
REMARK   54  A    between atoms: _170  and  _172
REMARK   55  A    between atoms: _172  and  _173
REMARK   56  A    between atoms: _172  and  _175
REMARK   57  A    between atoms: _175  and  _176
REMARK   58  A    between atoms: _176  and  _177
REMARK   59  A    between atoms: _180  and  _182
REMARK   60  A    between atoms: _182  and  _183
REMARK   61  A    between atoms: _182  and  _185
REMARK   62  A    between atoms: _185  and  _186
REMARK   63  A    between atoms: _189  and  _191
REMARK   64  A    between atoms: _191  and  _192
REMARK   65  A    between atoms: _191  and  _194
REMARK   66  A    between atoms: _194  and  _195
REMARK   67  A    between atoms: _196  and  ZN_384
REMARK   68  A    between atoms: _200  and  _202
REMARK   69  A    between atoms: _202  and  _203
REMARK   70  A    between atoms: _202  and  _205
REMARK   71  A    between atoms: _205  and  _206
REMARK   72  A    between atoms: _209  and  _211
REMARK   73  A    between atoms: _211  and  _212
REMARK   74  A    between atoms: _211  and  _214
REMARK   75  A    between atoms: _217  and  _219
REMARK   76  A    between atoms: _219  and  _220
REMARK   77  A    between atoms: _219  and  _222
REMARK   78  A    between atoms: _222  and  _223
REMARK   79  A    between atoms: _228  and  _230
REMARK   80  A    between atoms: _230  and  _231
REMARK   81  A    between atoms: _230  and  _233
REMARK   82  A    between atoms: _233  and  _234
REMARK   83  A    between atoms: _240  and  _242
REMARK   84  A    between atoms: _242  and  _243
REMARK   85  A    between atoms: _242  and  _245
REMARK   86  A    between atoms: _248  and  _250
REMARK   87  A    between atoms: _250  and  _251
REMARK   88  A    between atoms: _250  and  _253
REMARK   89  A    between atoms: _253  and  _254
REMARK   90  A    between atoms: _257  and  _259
REMARK   91  A    between atoms: _259  and  _260
REMARK   92  A    between atoms: _259  and  _262
REMARK   93  A    between atoms: _265  and  _267
REMARK   94  A    between atoms: _267  and  _268
REMARK   95  A    between atoms: _267  and  _270
REMARK   96  A    between atoms: _270  and  _271
REMARK   97  A    between atoms: _273  and  _275
REMARK   98  A    between atoms: _275  and  _276
REMARK   99  A    between atoms: _275  and  _278
REMARK  100  A    between atoms: _278  and  _279
REMARK  101  A    between atoms: _282  and  _284
REMARK  102  A    between atoms: _284  and  _285
REMARK  103  A    between atoms: _284  and  _287
REMARK  104  A    between atoms: _287  and  _288
REMARK  105  A    between atoms: _291  and  _293
REMARK  106  A    between atoms: _293  and  _294
REMARK  107  A    between atoms: _293  and  _296
REMARK  108  A    between atoms: _296  and  _297
REMARK  109  A    between atoms: _301  and  _302
REMARK  110  A    between atoms: _308  and  _309
REMARK  111  A    between atoms: _314  and  _316
REMARK  112  A    between atoms: _316  and  _317
REMARK  113  A    between atoms: _316  and  _319
REMARK  114  A    between atoms: _319  and  _320
REMARK  115  A    between atoms: _323  and  _325
REMARK  116  A    between atoms: _325  and  _326
REMARK  117  A    between atoms: _325  and  _328
REMARK  118  A    between atoms: _328  and  _329
REMARK  119  A    between atoms: _332  and  _334
REMARK  120  A    between atoms: _334  and  _335
REMARK  121  A    between atoms: _334  and  _337
REMARK  122  A    between atoms: _340  and  _342
REMARK  123  A    between atoms: _342  and  _343
REMARK  124  A    between atoms: _342  and  _345
REMARK  125  A    between atoms: _345  and  _346
REMARK  126  A    between atoms: _356  and  _358
REMARK  127  A    between atoms: _358  and  _359
REMARK  128  A    between atoms: _358  and  _361
REMARK  129  A    between atoms: _361  and  _362
REMARK  130  A    between atoms: _367  and  _369
REMARK  131  A    between atoms: _369  and  _370
REMARK  132  A    between atoms: _369  and  _372
REMARK  133  A    between atoms: _372  and  _373
REMARK  134  A    between atoms: _373  and  _374
REMARK  135  A    between atoms: _374  and  _375
REMARK                            x       y       z     vdW  Elec       q    Type
REMARK                         _______ _______ _______ _____ _____    ______ ____
ROOT
ATOM      1  O   HOH     1      16.739  -1.134  11.964  0.00  0.00    +0.000 OA
ENDROOT
TORSDOF 0
REMARK  Name = ../refined-set-2016/4q7s/4q7s_pocket.pdb
REMARK  135 active torsions:
REMARK  status: ('A' for Active; 'I' for Inactive)
REMARK    1  A    between atoms: _1  and  _3
REMARK    2  A    between atoms: _3  and  _4
REMARK    3  A    between atoms: _3  and  _6
REMARK    4  A    between atoms: _6  and  _7
REMARK    5  A    between atoms: _17  and  _19
REMARK    6  A    between atoms: _19  and  _20
REMARK    7  A    between atoms: _19  and  _22
REMARK    8  A    between atoms: _22  and  _23
REMARK    9  A    between atoms: _28  and  _29
REMARK   10  A    between atoms: _31  and  _33
REMARK   11  A    between atoms: _33  and  _34
REMARK   12  A    between atoms: _33  and  _36
REMARK   13  A    between atoms: _36  and  _37
REMARK   14  A    between atoms: _47  and  _49
REMARK   15  A    between atoms: _49  and  _50
REMARK   16  A    between atoms: _49  and  _52
REMARK   17  A    between atoms: _52  and  _53
REMARK   18  A    between atoms: _55  and  _57
REMARK   19  A    between atoms: _57  and  _58
REMARK   20  A    between atoms: _57  and  _60
REMARK   21  A    between atoms: _60  and  _61
REMARK   22  A    between atoms: _66  and  _68
REMARK   23  A    between atoms: _68  and  _69
REMARK   24  A    between atoms: _68  and  _71
REMARK   25  A    between atoms: _71  and  _72
REMARK   26  A    between atoms: _77  and  _79
REMARK   27  A    between atoms: _79  and  _80
REMARK   28  A    between atoms: _83  and  _85
REMARK   29  A    between atoms: _85  and  _86
REMARK   30  A    between atoms: _85  and  _88
REMARK   31  A    between atoms: _88  and  _89
REMARK   32  A    between atoms: _94  and  _96
REMARK   33  A    between atoms: _96  and  _97
REMARK   34  A    between atoms: _96  and  _99
REMARK   35  A    between atoms: _99  and  _100
REMARK   36  A    between atoms: _103  and  _105
REMARK   37  A    between atoms: _105  and  _106
REMARK   38  A    between atoms: _105  and  _108
REMARK   39  A    between atoms: _108  and  _109
REMARK   40  A    between atoms: _109  and  _110
REMARK   41  A    between atoms: _115  and  _117
REMARK   42  A    between atoms: _128  and  _131
REMARK   43  A    between atoms: _131  and  _132
REMARK   44  A    between atoms: _140  and  _141
REMARK   45  A    between atoms: _149  and  _151
REMARK   46  A    between atoms: _151  and  _152
REMARK   47  A    between atoms: _151  and  _154
REMARK   48  A    between atoms: _154  and  _155
REMARK   49  A    between atoms: _155  and  _156
REMARK   50  A    between atoms: _159  and  _161
REMARK   51  A    between atoms: _161  and  _162
REMARK   52  A    between atoms: _161  and  _164
REMARK   53  A    between atoms: _164  and  _165
REMARK   54  A    between atoms: _170  and  _172
REMARK   55  A    between atoms: _172  and  _173
REMARK   56  A    between atoms: _172  and  _175
REMARK   57  A    between atoms: _175  and  _176
REMARK   58  A    between atoms: _176  and  _177
REMARK   59  A    between atoms: _180  and  _182
REMARK   60  A    between atoms: _182  and  _183
REMARK   61  A    between atoms: _182  and  _185
REMARK   62  A    between atoms: _185  and  _186
REMARK   63  A    between atoms: _189  and  _191
REMARK   64  A    between atoms: _191  and  _192
REMARK   65  A    between atoms: _191  and  _194
REMARK   66  A    between atoms: _194  and  _195
REMARK   67  A    between atoms: _196  and  ZN_384
REMARK   68  A    between atoms: _200  and  _202
REMARK   69  A    between atoms: _202  and  _203
REMARK   70  A    between atoms: _202  and  _205
REMARK   71  A    between atoms: _205  and  _206
REMARK   72  A    between atoms: _209  and  _211
REMARK   73  A    between atoms: _211  and  _212
REMARK   74  A    between atoms: _211  and  _214
REMARK   75  A    between atoms: _217  and  _219
REMARK   76  A    between atoms: _219  and  _220
REMARK   77  A    between atoms: _219  and  _222
REMARK   78  A    between atoms: _222  and  _223
REMARK   79  A    between atoms: _228  and  _230
REMARK   80  A    between atoms: _230  and  _231
REMARK   81  A    between atoms: _230  and  _233
REMARK   82  A    between atoms: _233  and  _234
REMARK   83  A    between atoms: _240  and  _242
REMARK   84  A    between atoms: _242  and  _243
REMARK   85  A    between atoms: _242  and  _245
REMARK   86  A    between atoms: _248  and  _250
REMARK   87  A    between atoms: _250  and  _251
REMARK   88  A    between atoms: _250  and  _253
REMARK   89  A    between atoms: _253  and  _254
REMARK   90  A    between atoms: _257  and  _259
REMARK   91  A    between atoms: _259  and  _260
REMARK   92  A    between atoms: _259  and  _262
REMARK   93  A    between atoms: _265  and  _267
REMARK   94  A    between atoms: _267  and  _268
REMARK   95  A    between atoms: _267  and  _270
REMARK   96  A    between atoms: _270  and  _271
REMARK   97  A    between atoms: _273  and  _275
REMARK   98  A    between atoms: _275  and  _276
REMARK   99  A    between atoms: _275  and  _278
REMARK  100  A    between atoms: _278  and  _279
REMARK  101  A    between atoms: _282  and  _284
REMARK  102  A    between atoms: _284  and  _285
REMARK  103  A    between atoms: _284  and  _287
REMARK  104  A    between atoms: _287  and  _288
REMARK  105  A    between atoms: _291  and  _293
REMARK  106  A    between atoms: _293  and  _294
REMARK  107  A    between atoms: _293  and  _296
REMARK  108  A    between atoms: _296  and  _297
REMARK  109  A    between atoms: _301  and  _302
REMARK  110  A    between atoms: _308  and  _309
REMARK  111  A    between atoms: _314  and  _316
REMARK  112  A    between atoms: _316  and  _317
REMARK  113  A    between atoms: _316  and  _319
REMARK  114  A    between atoms: _319  and  _320
REMARK  115  A    between atoms: _323  and  _325
REMARK  116  A    between atoms: _325  and  _326
REMARK  117  A    between atoms: _325  and  _328
REMARK  118  A    between atoms: _328  and  _329
REMARK  119  A    between atoms: _332  and  _334
REMARK  120  A    between atoms: _334  and  _335
REMARK  121  A    between atoms: _334  and  _337
REMARK  122  A    between atoms: _340  and  _342
REMARK  123  A    between atoms: _342  and  _343
REMARK  124  A    between atoms: _342  and  _345
REMARK  125  A    between atoms: _345  and  _346
REMARK  126  A    between atoms: _356  and  _358
REMARK  127  A    between atoms: _358  and  _359
REMARK  128  A    between atoms: _358  and  _361
REMARK  129  A    between atoms: _361  and  _362
REMARK  130  A    between atoms: _367  and  _369
REMARK  131  A    between atoms: _369  and  _370
REMARK  132  A    between atoms: _369  and  _372
REMARK  133  A    between atoms: _372  and  _373
REMARK  134  A    between atoms: _373  and  _374
REMARK  135  A    between atoms: _374  and  _375
REMARK                            x       y       z     vdW  Elec       q    Type
REMARK                         _______ _______ _______ _____ _____    ______ ____
ROOT
ATOM      1  O   HOH     1      16.702   3.450  10.360  0.00  0.00    +0.000 OA
ENDROOT
TORSDOF 0
REMARK  Name = ../refined-set-2016/4q7s/4q7s_pocket.pdb
REMARK  135 active torsions:
REMARK  status: ('A' for Active; 'I' for Inactive)
REMARK    1  A    between atoms: _1  and  _3
REMARK    2  A    between atoms: _3  and  _4
REMARK    3  A    between atoms: _3  and  _6
REMARK    4  A    between atoms: _6  and  _7
REMARK    5  A    between atoms: _17  and  _19
REMARK    6  A    between atoms: _19  and  _20
REMARK    7  A    between atoms: _19  and  _22
REMARK    8  A    between atoms: _22  and  _23
REMARK    9  A    between atoms: _28  and  _29
REMARK   10  A    between atoms: _31  and  _33
REMARK   11  A    between atoms: _33  and  _34
REMARK   12  A    between atoms: _33  and  _36
REMARK   13  A    between atoms: _36  and  _37
REMARK   14  A    between atoms: _47  and  _49
REMARK   15  A    between atoms: _49  and  _50
REMARK   16  A    between atoms: _49  and  _52
REMARK   17  A    between atoms: _52  and  _53
REMARK   18  A    between atoms: _55  and  _57
REMARK   19  A    between atoms: _57  and  _58
REMARK   20  A    between atoms: _57  and  _60
REMARK   21  A    between atoms: _60  and  _61
REMARK   22  A    between atoms: _66  and  _68
REMARK   23  A    between atoms: _68  and  _69
REMARK   24  A    between atoms: _68  and  _71
REMARK   25  A    between atoms: _71  and  _72
REMARK   26  A    between atoms: _77  and  _79
REMARK   27  A    between atoms: _79  and  _80
REMARK   28  A    between atoms: _83  and  _85
REMARK   29  A    between atoms: _85  and  _86
REMARK   30  A    between atoms: _85  and  _88
REMARK   31  A    between atoms: _88  and  _89
REMARK   32  A    between atoms: _94  and  _96
REMARK   33  A    between atoms: _96  and  _97
REMARK   34  A    between atoms: _96  and  _99
REMARK   35  A    between atoms: _99  and  _100
REMARK   36  A    between atoms: _103  and  _105
REMARK   37  A    between atoms: _105  and  _106
REMARK   38  A    between atoms: _105  and  _108
REMARK   39  A    between atoms: _108  and  _109
REMARK   40  A    between atoms: _109  and  _110
REMARK   41  A    between atoms: _115  and  _117
REMARK   42  A    between atoms: _128  and  _131
REMARK   43  A    between atoms: _131  and  _132
REMARK   44  A    between atoms: _140  and  _141
REMARK   45  A    between atoms: _149  and  _151
REMARK   46  A    between atoms: _151  and  _152
REMARK   47  A    between atoms: _151  and  _154
REMARK   48  A    between atoms: _154  and  _155
REMARK   49  A    between atoms: _155  and  _156
REMARK   50  A    between atoms: _159  and  _161
REMARK   51  A    between atoms: _161  and  _162
REMARK   52  A    between atoms: _161  and  _164
REMARK   53  A    between atoms: _164  and  _165
REMARK   54  A    between atoms: _170  and  _172
REMARK   55  A    between atoms: _172  and  _173
REMARK   56  A    between atoms: _172  and  _175
REMARK   57  A    between atoms: _175  and  _176
REMARK   58  A    between atoms: _176  and  _177
REMARK   59  A    between atoms: _180  and  _182
REMARK   60  A    between atoms: _182  and  _183
REMARK   61  A    between atoms: _182  and  _185
REMARK   62  A    between atoms: _185  and  _186
REMARK   63  A    between atoms: _189  and  _191
REMARK   64  A    between atoms: _191  and  _192
REMARK   65  A    between atoms: _191  and  _194
REMARK   66  A    between atoms: _194  and  _195
REMARK   67  A    between atoms: _196  and  ZN_384
REMARK   68  A    between atoms: _200  and  _202
REMARK   69  A    between atoms: _202  and  _203
REMARK   70  A    between atoms: _202  and  _205
REMARK   71  A    between atoms: _205  and  _206
REMARK   72  A    between atoms: _209  and  _211
REMARK   73  A    between atoms: _211  and  _212
REMARK   74  A    between atoms: _211  and  _214
REMARK   75  A    between atoms: _217  and  _219
REMARK   76  A    between atoms: _219  and  _220
REMARK   77  A    between atoms: _219  and  _222
REMARK   78  A    between atoms: _222  and  _223
REMARK   79  A    between atoms: _228  and  _230
REMARK   80  A    between atoms: _230  and  _231
REMARK   81  A    between atoms: _230  and  _233
REMARK   82  A    between atoms: _233  and  _234
REMARK   83  A    between atoms: _240  and  _242
REMARK   84  A    between atoms: _242  and  _243
REMARK   85  A    between atoms: _242  and  _245
REMARK   86  A    between atoms: _248  and  _250
REMARK   87  A    between atoms: _250  and  _251
REMARK   88  A    between atoms: _250  and  _253
REMARK   89  A    between atoms: _253  and  _254
REMARK   90  A    between atoms: _257  and  _259
REMARK   91  A    between atoms: _259  and  _260
REMARK   92  A    between atoms: _259  and  _262
REMARK   93  A    between atoms: _265  and  _267
REMARK   94  A    between atoms: _267  and  _268
REMARK   95  A    between atoms: _267  and  _270
REMARK   96  A    between atoms: _270  and  _271
REMARK   97  A    between atoms: _273  and  _275
REMARK   98  A    between atoms: _275  and  _276
REMARK   99  A    between atoms: _275  and  _278
REMARK  100  A    between atoms: _278  and  _279
REMARK  101  A    between atoms: _282  and  _284
REMARK  102  A    between atoms: _284  and  _285
REMARK  103  A    between atoms: _284  and  _287
REMARK  104  A    between atoms: _287  and  _288
REMARK  105  A    between atoms: _291  and  _293
REMARK  106  A    between atoms: _293  and  _294
REMARK  107  A    between atoms: _293  and  _296
REMARK  108  A    between atoms: _296  and  _297
REMARK  109  A    between atoms: _301  and  _302
REMARK  110  A    between atoms: _308  and  _309
REMARK  111  A    between atoms: _314  and  _316
REMARK  112  A    between atoms: _316  and  _317
REMARK  113  A    between atoms: _316  and  _319
REMARK  114  A    between atoms: _319  and  _320
REMARK  115  A    between atoms: _323  and  _325
REMARK  116  A    between atoms: _325  and  _326
REMARK  117  A    between atoms: _325  and  _328
REMARK  118  A    between atoms: _328  and  _329
REMARK  119  A    between atoms: _332  and  _334
REMARK  120  A    between atoms: _334  and  _335
REMARK  121  A    between atoms: _334  and  _337
REMARK  122  A    between atoms: _340  and  _342
REMARK  123  A    between atoms: _342  and  _343
REMARK  124  A    between atoms: _342  and  _345
REMARK  125  A    between atoms: _345  and  _346
REMARK  126  A    between atoms: _356  and  _358
REMARK  127  A    between atoms: _358  and  _359
REMARK  128  A    between atoms: _358  and  _361
REMARK  129  A    between atoms: _361  and  _362
REMARK  130  A    between atoms: _367  and  _369
REMARK  131  A    between atoms: _369  and  _370
REMARK  132  A    between atoms: _369  and  _372
REMARK  133  A    between atoms: _372  and  _373
REMARK  134  A    between atoms: _373  and  _374
REMARK  135  A    between atoms: _374  and  _375
REMARK                            x       y       z     vdW  Elec       q    Type
REMARK                         _______ _______ _______ _____ _____    ______ ____
ROOT
ATOM      1  O   HOH     1      19.760   3.361  13.838  0.00  0.00    +0.000 OA
ENDROOT
TORSDOF 0
REMARK  Name = ../refined-set-2016/4q7s/4q7s_pocket.pdb
REMARK  135 active torsions:
REMARK  status: ('A' for Active; 'I' for Inactive)
REMARK    1  A    between atoms: _1  and  _3
REMARK    2  A    between atoms: _3  and  _4
REMARK    3  A    between atoms: _3  and  _6
REMARK    4  A    between atoms: _6  and  _7
REMARK    5  A    between atoms: _17  and  _19
REMARK    6  A    between atoms: _19  and  _20
REMARK    7  A    between atoms: _19  and  _22
REMARK    8  A    between atoms: _22  and  _23
REMARK    9  A    between atoms: _28  and  _29
REMARK   10  A    between atoms: _31  and  _33
REMARK   11  A    between atoms: _33  and  _34
REMARK   12  A    between atoms: _33  and  _36
REMARK   13  A    between atoms: _36  and  _37
REMARK   14  A    between atoms: _47  and  _49
REMARK   15  A    between atoms: _49  and  _50
REMARK   16  A    between atoms: _49  and  _52
REMARK   17  A    between atoms: _52  and  _53
REMARK   18  A    between atoms: _55  and  _57
REMARK   19  A    between atoms: _57  and  _58
REMARK   20  A    between atoms: _57  and  _60
REMARK   21  A    between atoms: _60  and  _61
REMARK   22  A    between atoms: _66  and  _68
REMARK   23  A    between atoms: _68  and  _69
REMARK   24  A    between atoms: _68  and  _71
REMARK   25  A    between atoms: _71  and  _72
REMARK   26  A    between atoms: _77  and  _79
REMARK   27  A    between atoms: _79  and  _80
REMARK   28  A    between atoms: _83  and  _85
REMARK   29  A    between atoms: _85  and  _86
REMARK   30  A    between atoms: _85  and  _88
REMARK   31  A    between atoms: _88  and  _89
REMARK   32  A    between atoms: _94  and  _96
REMARK   33  A    between atoms: _96  and  _97
REMARK   34  A    between atoms: _96  and  _99
REMARK   35  A    between atoms: _99  and  _100
REMARK   36  A    between atoms: _103  and  _105
REMARK   37  A    between atoms: _105  and  _106
REMARK   38  A    between atoms: _105  and  _108
REMARK   39  A    between atoms: _108  and  _109
REMARK   40  A    between atoms: _109  and  _110
REMARK   41  A    between atoms: _115  and  _117
REMARK   42  A    between atoms: _128  and  _131
REMARK   43  A    between atoms: _131  and  _132
REMARK   44  A    between atoms: _140  and  _141
REMARK   45  A    between atoms: _149  and  _151
REMARK   46  A    between atoms: _151  and  _152
REMARK   47  A    between atoms: _151  and  _154
REMARK   48  A    between atoms: _154  and  _155
REMARK   49  A    between atoms: _155  and  _156
REMARK   50  A    between atoms: _159  and  _161
REMARK   51  A    between atoms: _161  and  _162
REMARK   52  A    between atoms: _161  and  _164
REMARK   53  A    between atoms: _164  and  _165
REMARK   54  A    between atoms: _170  and  _172
REMARK   55  A    between atoms: _172  and  _173
REMARK   56  A    between atoms: _172  and  _175
REMARK   57  A    between atoms: _175  and  _176
REMARK   58  A    between atoms: _176  and  _177
REMARK   59  A    between atoms: _180  and  _182
REMARK   60  A    between atoms: _182  and  _183
REMARK   61  A    between atoms: _182  and  _185
REMARK   62  A    between atoms: _185  and  _186
REMARK   63  A    between atoms: _189  and  _191
REMARK   64  A    between atoms: _191  and  _192
REMARK   65  A    between atoms: _191  and  _194
REMARK   66  A    between atoms: _194  and  _195
REMARK   67  A    between atoms: _196  and  ZN_384
REMARK   68  A    between atoms: _200  and  _202
REMARK   69  A    between atoms: _202  and  _203
REMARK   70  A    between atoms: _202  and  _205
REMARK   71  A    between atoms: _205  and  _206
REMARK   72  A    between atoms: _209  and  _211
REMARK   73  A    between atoms: _211  and  _212
REMARK   74  A    between atoms: _211  and  _214
REMARK   75  A    between atoms: _217  and  _219
REMARK   76  A    between atoms: _219  and  _220
REMARK   77  A    between atoms: _219  and  _222
REMARK   78  A    between atoms: _222  and  _223
REMARK   79  A    between atoms: _228  and  _230
REMARK   80  A    between atoms: _230  and  _231
REMARK   81  A    between atoms: _230  and  _233
REMARK   82  A    between atoms: _233  and  _234
REMARK   83  A    between atoms: _240  and  _242
REMARK   84  A    between atoms: _242  and  _243
REMARK   85  A    between atoms: _242  and  _245
REMARK   86  A    between atoms: _248  and  _250
REMARK   87  A    between atoms: _250  and  _251
REMARK   88  A    between atoms: _250  and  _253
REMARK   89  A    between atoms: _253  and  _254
REMARK   90  A    between atoms: _257  and  _259
REMARK   91  A    between atoms: _259  and  _260
REMARK   92  A    between atoms: _259  and  _262
REMARK   93  A    between atoms: _265  and  _267
REMARK   94  A    between atoms: _267  and  _268
REMARK   95  A    between atoms: _267  and  _270
REMARK   96  A    between atoms: _270  and  _271
REMARK   97  A    between atoms: _273  and  _275
REMARK   98  A    between atoms: _275  and  _276
REMARK   99  A    between atoms: _275  and  _278
REMARK  100  A    between atoms: _278  and  _279
REMARK  101  A    between atoms: _282  and  _284
REMARK  102  A    between atoms: _284  and  _285
REMARK  103  A    between atoms: _284  and  _287
REMARK  104  A    between atoms: _287  and  _288
REMARK  105  A    between atoms: _291  and  _293
REMARK  106  A    between atoms: _293  and  _294
REMARK  107  A    between atoms: _293  and  _296
REMARK  108  A    between atoms: _296  and  _297
REMARK  109  A    between atoms: _301  and  _302
REMARK  110  A    between atoms: _308  and  _309
REMARK  111  A    between atoms: _314  and  _316
REMARK  112  A    between atoms: _316  and  _317
REMARK  113  A    between atoms: _316  and  _319
REMARK  114  A    between atoms: _319  and  _320
REMARK  115  A    between atoms: _323  and  _325
REMARK  116  A    between atoms: _325  and  _326
REMARK  117  A    between atoms: _325  and  _328
REMARK  118  A    between atoms: _328  and  _329
REMARK  119  A    between atoms: _332  and  _334
REMARK  120  A    between atoms: _334  and  _335
REMARK  121  A    between atoms: _334  and  _337
REMARK  122  A    between atoms: _340  and  _342
REMARK  123  A    between atoms: _342  and  _343
REMARK  124  A    between atoms: _342  and  _345
REMARK  125  A    between atoms: _345  and  _346
REMARK  126  A    between atoms: _356  and  _358
REMARK  127  A    between atoms: _358  and  _359
REMARK  128  A    between atoms: _358  and  _361
REMARK  129  A    between atoms: _361  and  _362
REMARK  130  A    between atoms: _367  and  _369
REMARK  131  A    between atoms: _369  and  _370
REMARK  132  A    between atoms: _369  and  _372
REMARK  133  A    between atoms: _372  and  _373
REMARK  134  A    between atoms: _373  and  _374
REMARK  135  A    between atoms: _374  and  _375
REMARK                            x       y       z     vdW  Elec       q    Type
REMARK                         _______ _______ _______ _____ _____    ______ ____
ROOT
ATOM      1  O   HOH     1      15.004   6.679  11.100  0.00  0.00    +0.000 OA
ENDROOT
TORSDOF 0
