REMARK  Name = ../refined-set-2016/4oct/4oct_pocket.pdb
REMARK  144 active torsions:
REMARK  status: ('A' for Active; 'I' for Inactive)
REMARK    1  A    between atoms: _1  and  _3
REMARK    2  A    between atoms: _3  and  _4
REMARK    3  A    between atoms: _3  and  _6
REMARK    4  A    between atoms: _6  and  _7
REMARK    5  A    between atoms: _7  and  _8
REMARK    6  A    between atoms: _8  and  _9
REMARK    7  A    between atoms: _18  and  _20
REMARK    8  A    between atoms: _20  and  _21
REMARK    9  A    between atoms: _20  and  _23
REMARK   10  A    between atoms: _23  and  _24
REMARK   11  A    between atoms: _24  and  _25
REMARK   12  A    between atoms: _25  and  _26
REMARK   13  A    between atoms: _26  and  _27
REMARK   14  A    between atoms: _31  and  _33
REMARK   15  A    between atoms: _33  and  _34
REMARK   16  A    between atoms: _33  and  _36
REMARK   17  A    between atoms: _36  and  _37
REMARK   18  A    between atoms: _43  and  _45
REMARK   19  A    between atoms: _45  and  _46
REMARK   20  A    between atoms: _45  and  _48
REMARK   21  A    between atoms: _48  and  _49
REMARK   22  A    between atoms: _54  and  _55
REMARK   23  A    between atoms: _57  and  _59
REMARK   24  A    between atoms: _59  and  _60
REMARK   25  A    between atoms: _59  and  _62
REMARK   26  A    between atoms: _65  and  _67
REMARK   27  A    between atoms: _67  and  _68
REMARK   28  A    between atoms: _67  and  _70
REMARK   29  A    between atoms: _70  and  _71
REMARK   30  A    between atoms: _74  and  _76
REMARK   31  A    between atoms: _76  and  _77
REMARK   32  A    between atoms: _76  and  _79
REMARK   33  A    between atoms: _79  and  _80
REMARK   34  A    between atoms: _85  and  _87
REMARK   35  A    between atoms: _87  and  _88
REMARK   36  A    between atoms: _87  and  _90
REMARK   37  A    between atoms: _90  and  _91
REMARK   38  A    between atoms: _94  and  _96
REMARK   39  A    between atoms: _96  and  _97
REMARK   40  A    between atoms: _96  and  _99
REMARK   41  A    between atoms: _99  and  _100
REMARK   42  A    between atoms: _105  and  _106
REMARK   43  A    between atoms: _108  and  _110
REMARK   44  A    between atoms: _110  and  _111
REMARK   45  A    between atoms: _110  and  _113
REMARK   46  A    between atoms: _115  and  _117
REMARK   47  A    between atoms: _117  and  _118
REMARK   48  A    between atoms: _117  and  _120
REMARK   49  A    between atoms: _120  and  _121
REMARK   50  A    between atoms: _124  and  _126
REMARK   51  A    between atoms: _126  and  _127
REMARK   52  A    between atoms: _126  and  _129
REMARK   53  A    between atoms: _132  and  _134
REMARK   54  A    between atoms: _145  and  _148
REMARK   55  A    between atoms: _153  and  _154
REMARK   56  A    between atoms: _161  and  _162
REMARK   57  A    between atoms: _167  and  _169
REMARK   58  A    between atoms: _169  and  _170
REMARK   59  A    between atoms: _169  and  _172
REMARK   60  A    between atoms: _172  and  _173
REMARK   61  A    between atoms: _179  and  _181
REMARK   62  A    between atoms: _181  and  _182
REMARK   63  A    between atoms: _181  and  _184
REMARK   64  A    between atoms: _184  and  _185
REMARK   65  A    between atoms: _188  and  _190
REMARK   66  A    between atoms: _190  and  _191
REMARK   67  A    between atoms: _190  and  _193
REMARK   68  A    between atoms: _193  and  _194
REMARK   69  A    between atoms: _196  and  _198
REMARK   70  A    between atoms: _198  and  _199
REMARK   71  A    between atoms: _198  and  _201
REMARK   72  A    between atoms: _204  and  _206
REMARK   73  A    between atoms: _206  and  _207
REMARK   74  A    between atoms: _206  and  _209
REMARK   75  A    between atoms: _209  and  _210
REMARK   76  A    between atoms: _212  and  _214
REMARK   77  A    between atoms: _214  and  _215
REMARK   78  A    between atoms: _214  and  _217
REMARK   79  A    between atoms: _217  and  _218
REMARK   80  A    between atoms: _224  and  _226
REMARK   81  A    between atoms: _226  and  _227
REMARK   82  A    between atoms: _226  and  _229
REMARK   83  A    between atoms: _229  and  _230
REMARK   84  A    between atoms: _232  and  _234
REMARK   85  A    between atoms: _234  and  _235
REMARK   86  A    between atoms: _238  and  _240
REMARK   87  A    between atoms: _240  and  _241
REMARK   88  A    between atoms: _240  and  _243
REMARK   89  A    between atoms: _243  and  _244
REMARK   90  A    between atoms: _247  and  _249
REMARK   91  A    between atoms: _249  and  _250
REMARK   92  A    between atoms: _249  and  _252
REMARK   93  A    between atoms: _254  and  _256
REMARK   94  A    between atoms: _256  and  _257
REMARK   95  A    between atoms: _256  and  _259
REMARK   96  A    between atoms: _262  and  _264
REMARK   97  A    between atoms: _264  and  _265
REMARK   98  A    between atoms: _264  and  _267
REMARK   99  A    between atoms: _267  and  _268
REMARK  100  A    between atoms: _271  and  _273
REMARK  101  A    between atoms: _273  and  _274
REMARK  102  A    between atoms: _273  and  _276
REMARK  103  A    between atoms: _276  and  _277
REMARK  104  A    between atoms: _280  and  _282
REMARK  105  A    between atoms: _282  and  _283
REMARK  106  A    between atoms: _282  and  _285
REMARK  107  A    between atoms: _285  and  _286
REMARK  108  A    between atoms: _290  and  MN_382
REMARK  109  A    between atoms: _291  and  _293
REMARK  110  A    between atoms: _293  and  _294
REMARK  111  A    between atoms: _293  and  _296
REMARK  112  A    between atoms: _298  and  _300
REMARK  113  A    between atoms: _300  and  _301
REMARK  114  A    between atoms: _300  and  _303
REMARK  115  A    between atoms: _303  and  _304
REMARK  116  A    between atoms: _307  and  _309
REMARK  117  A    between atoms: _309  and  _310
REMARK  118  A    between atoms: _309  and  _312
REMARK  119  A    between atoms: _312  and  _313
REMARK  120  A    between atoms: _316  and  _318
REMARK  121  A    between atoms: _318  and  _319
REMARK  122  A    between atoms: _318  and  _321
REMARK  123  A    between atoms: _321  and  _322
REMARK  124  A    between atoms: _322  and  _323
REMARK  125  A    between atoms: _323  and  _324
REMARK  126  A    between atoms: _333  and  _335
REMARK  127  A    between atoms: _335  and  _336
REMARK  128  A    between atoms: _339  and  _341
REMARK  129  A    between atoms: _341  and  _342
REMARK  130  A    between atoms: _341  and  _344
REMARK  131  A    between atoms: _347  and  _349
REMARK  132  A    between atoms: _349  and  _350
REMARK  133  A    between atoms: _349  and  _352
REMARK  134  A    between atoms: _352  and  _353
REMARK  135  A    between atoms: _356  and  _358
REMARK  136  A    between atoms: _358  and  _359
REMARK  137  A    between atoms: _358  and  _361
REMARK  138  A    between atoms: _361  and  _362
REMARK  139  A    between atoms: _365  and  _367
REMARK  140  A    between atoms: _367  and  _368
REMARK  141  A    between atoms: _367  and  _370
REMARK  142  A    between atoms: _370  and  _371
REMARK  143  A    between atoms: _371  and  _372
REMARK  144  A    between atoms: _372  and  _373
REMARK                            x       y       z     vdW  Elec       q    Type
REMARK                         _______ _______ _______ _____ _____    ______ ____
ROOT
ATOM      1  NE  ARG A   1      21.142  11.010  -0.799  0.00  0.00    -0.265 N 
ATOM      2  HE  ARG A   1      21.097  11.783  -0.105  0.00  0.00    +0.259 HD
ATOM      3  CZ  ARG A   1      22.345  10.751  -1.315  0.00  0.00    +0.342 C 
ATOM      4  NH2 ARG A   1      23.393  11.509  -0.928  0.00  0.00    -0.292 N 
ATOM      5 HH21 ARG A   1      23.254  12.277  -0.241  0.00  0.00    +0.255 HD
ATOM      6 HH22 ARG A   1      24.340  11.325  -1.317  0.00  0.00    +0.255 HD
ATOM      7  NH1 ARG A   1      22.526   9.754  -2.166  0.00  0.00    -0.292 N 
ATOM      8 HH11 ARG A   1      21.722   9.155  -2.444  0.00  0.00    +0.255 HD
ATOM      9 HH12 ARG A   1      23.472   9.569  -2.557  0.00  0.00    +0.255 HD
ENDROOT
BRANCH   1  10
ATOM     10  CD  ARG A   1      19.865  10.326  -1.099  0.00  0.00    +0.174 C 
BRANCH  10  11
ATOM     11  CG  ARG A   1      18.774  11.418  -1.018  0.00  0.00    +0.045 C 
BRANCH  11  12
ATOM     12  CB  ARG A   1      19.141  12.544  -1.991  0.00  0.00    +0.029 C 
BRANCH  12  13
ATOM     13  CA  ARG A   1      19.112  13.993  -1.485  0.00  0.00    +0.133 C 
BRANCH  13  14
ATOM     14  N   ARG A   1      19.090  14.887  -2.650  0.00  0.00    -0.239 NA
ATOM     15  H   ARG A   1      19.984  15.309  -2.975  0.00  0.00    +0.142 HD
ENDBRANCH  13  14
BRANCH  13  16
ATOM     16  C   ARG A   1      20.368  14.352  -0.648  0.00  0.00    +0.224 C 
ATOM     17  O   ARG A   1      21.510  14.379  -1.149  0.00  0.00    -0.287 OA
ENDBRANCH  13  16
ENDBRANCH  12  13
ENDBRANCH  11  12
ENDBRANCH  10  11
ENDBRANCH   1  10
TORSDOF 6
REMARK  Name = ../refined-set-2016/4oct/4oct_pocket.pdb
REMARK  144 active torsions:
REMARK  status: ('A' for Active; 'I' for Inactive)
REMARK    1  A    between atoms: _1  and  _3
REMARK    2  A    between atoms: _3  and  _4
REMARK    3  A    between atoms: _3  and  _6
REMARK    4  A    between atoms: _6  and  _7
REMARK    5  A    between atoms: _7  and  _8
REMARK    6  A    between atoms: _8  and  _9
REMARK    7  A    between atoms: _18  and  _20
REMARK    8  A    between atoms: _20  and  _21
REMARK    9  A    between atoms: _20  and  _23
REMARK   10  A    between atoms: _23  and  _24
REMARK   11  A    between atoms: _24  and  _25
REMARK   12  A    between atoms: _25  and  _26
REMARK   13  A    between atoms: _26  and  _27
REMARK   14  A    between atoms: _31  and  _33
REMARK   15  A    between atoms: _33  and  _34
REMARK   16  A    between atoms: _33  and  _36
REMARK   17  A    between atoms: _36  and  _37
REMARK   18  A    between atoms: _43  and  _45
REMARK   19  A    between atoms: _45  and  _46
REMARK   20  A    between atoms: _45  and  _48
REMARK   21  A    between atoms: _48  and  _49
REMARK   22  A    between atoms: _54  and  _55
REMARK   23  A    between atoms: _57  and  _59
REMARK   24  A    between atoms: _59  and  _60
REMARK   25  A    between atoms: _59  and  _62
REMARK   26  A    between atoms: _65  and  _67
REMARK   27  A    between atoms: _67  and  _68
REMARK   28  A    between atoms: _67  and  _70
REMARK   29  A    between atoms: _70  and  _71
REMARK   30  A    between atoms: _74  and  _76
REMARK   31  A    between atoms: _76  and  _77
REMARK   32  A    between atoms: _76  and  _79
REMARK   33  A    between atoms: _79  and  _80
REMARK   34  A    between atoms: _85  and  _87
REMARK   35  A    between atoms: _87  and  _88
REMARK   36  A    between atoms: _87  and  _90
REMARK   37  A    between atoms: _90  and  _91
REMARK   38  A    between atoms: _94  and  _96
REMARK   39  A    between atoms: _96  and  _97
REMARK   40  A    between atoms: _96  and  _99
REMARK   41  A    between atoms: _99  and  _100
REMARK   42  A    between atoms: _105  and  _106
REMARK   43  A    between atoms: _108  and  _110
REMARK   44  A    between atoms: _110  and  _111
REMARK   45  A    between atoms: _110  and  _113
REMARK   46  A    between atoms: _115  and  _117
REMARK   47  A    between atoms: _117  and  _118
REMARK   48  A    between atoms: _117  and  _120
REMARK   49  A    between atoms: _120  and  _121
REMARK   50  A    between atoms: _124  and  _126
REMARK   51  A    between atoms: _126  and  _127
REMARK   52  A    between atoms: _126  and  _129
REMARK   53  A    between atoms: _132  and  _134
REMARK   54  A    between atoms: _145  and  _148
REMARK   55  A    between atoms: _153  and  _154
REMARK   56  A    between atoms: _161  and  _162
REMARK   57  A    between atoms: _167  and  _169
REMARK   58  A    between atoms: _169  and  _170
REMARK   59  A    between atoms: _169  and  _172
REMARK   60  A    between atoms: _172  and  _173
REMARK   61  A    between atoms: _179  and  _181
REMARK   62  A    between atoms: _181  and  _182
REMARK   63  A    between atoms: _181  and  _184
REMARK   64  A    between atoms: _184  and  _185
REMARK   65  A    between atoms: _188  and  _190
REMARK   66  A    between atoms: _190  and  _191
REMARK   67  A    between atoms: _190  and  _193
REMARK   68  A    between atoms: _193  and  _194
REMARK   69  A    between atoms: _196  and  _198
REMARK   70  A    between atoms: _198  and  _199
REMARK   71  A    between atoms: _198  and  _201
REMARK   72  A    between atoms: _204  and  _206
REMARK   73  A    between atoms: _206  and  _207
REMARK   74  A    between atoms: _206  and  _209
REMARK   75  A    between atoms: _209  and  _210
REMARK   76  A    between atoms: _212  and  _214
REMARK   77  A    between atoms: _214  and  _215
REMARK   78  A    between atoms: _214  and  _217
REMARK   79  A    between atoms: _217  and  _218
REMARK   80  A    between atoms: _224  and  _226
REMARK   81  A    between atoms: _226  and  _227
REMARK   82  A    between atoms: _226  and  _229
REMARK   83  A    between atoms: _229  and  _230
REMARK   84  A    between atoms: _232  and  _234
REMARK   85  A    between atoms: _234  and  _235
REMARK   86  A    between atoms: _238  and  _240
REMARK   87  A    between atoms: _240  and  _241
REMARK   88  A    between atoms: _240  and  _243
REMARK   89  A    between atoms: _243  and  _244
REMARK   90  A    between atoms: _247  and  _249
REMARK   91  A    between atoms: _249  and  _250
REMARK   92  A    between atoms: _249  and  _252
REMARK   93  A    between atoms: _254  and  _256
REMARK   94  A    between atoms: _256  and  _257
REMARK   95  A    between atoms: _256  and  _259
REMARK   96  A    between atoms: _262  and  _264
REMARK   97  A    between atoms: _264  and  _265
REMARK   98  A    between atoms: _264  and  _267
REMARK   99  A    between atoms: _267  and  _268
REMARK  100  A    between atoms: _271  and  _273
REMARK  101  A    between atoms: _273  and  _274
REMARK  102  A    between atoms: _273  and  _276
REMARK  103  A    between atoms: _276  and  _277
REMARK  104  A    between atoms: _280  and  _282
REMARK  105  A    between atoms: _282  and  _283
REMARK  106  A    between atoms: _282  and  _285
REMARK  107  A    between atoms: _285  and  _286
REMARK  108  A    between atoms: _290  and  MN_382
REMARK  109  A    between atoms: _291  and  _293
REMARK  110  A    between atoms: _293  and  _294
REMARK  111  A    between atoms: _293  and  _296
REMARK  112  A    between atoms: _298  and  _300
REMARK  113  A    between atoms: _300  and  _301
REMARK  114  A    between atoms: _300  and  _303
REMARK  115  A    between atoms: _303  and  _304
REMARK  116  A    between atoms: _307  and  _309
REMARK  117  A    between atoms: _309  and  _310
REMARK  118  A    between atoms: _309  and  _312
REMARK  119  A    between atoms: _312  and  _313
REMARK  120  A    between atoms: _316  and  _318
REMARK  121  A    between atoms: _318  and  _319
REMARK  122  A    between atoms: _318  and  _321
REMARK  123  A    between atoms: _321  and  _322
REMARK  124  A    between atoms: _322  and  _323
REMARK  125  A    between atoms: _323  and  _324
REMARK  126  A    between atoms: _333  and  _335
REMARK  127  A    between atoms: _335  and  _336
REMARK  128  A    between atoms: _339  and  _341
REMARK  129  A    between atoms: _341  and  _342
REMARK  130  A    between atoms: _341  and  _344
REMARK  131  A    between atoms: _347  and  _349
REMARK  132  A    between atoms: _349  and  _350
REMARK  133  A    between atoms: _349  and  _352
REMARK  134  A    between atoms: _352  and  _353
REMARK  135  A    between atoms: _356  and  _358
REMARK  136  A    between atoms: _358  and  _359
REMARK  137  A    between atoms: _358  and  _361
REMARK  138  A    between atoms: _361  and  _362
REMARK  139  A    between atoms: _365  and  _367
REMARK  140  A    between atoms: _367  and  _368
REMARK  141  A    between atoms: _367  and  _370
REMARK  142  A    between atoms: _370  and  _371
REMARK  143  A    between atoms: _371  and  _372
REMARK  144  A    between atoms: _372  and  _373
REMARK                            x       y       z     vdW  Elec       q    Type
REMARK                         _______ _______ _______ _____ _____    ______ ____
ROOT
ATOM      1  CG  LYS A   1      21.792  10.239   2.272  0.00  0.00    -0.000 C 
ENDROOT
BRANCH   1   2
ATOM      2  CB  LYS A   1      22.599  10.703   3.458  0.00  0.00    +0.025 C 
BRANCH   2   3
ATOM      3  CA  LYS A   1      22.184  12.040   3.993  0.00  0.00    +0.133 C 
BRANCH   3   4
ATOM      4  N   LYS A   1      22.217  13.089   2.963  0.00  0.00    -0.239 NA
ATOM      5  H   LYS A   1      23.133  13.384   2.569  0.00  0.00    +0.142 HD
ENDBRANCH   3   4
BRANCH   3   6
ATOM      6  C   LYS A   1      23.097  12.408   5.153  0.00  0.00    +0.224 C 
ATOM      7  O   LYS A   1      24.202  12.938   4.957  0.00  0.00    -0.287 OA
ENDBRANCH   3   6
ENDBRANCH   2   3
ENDBRANCH   1   2
BRANCH   1   8
ATOM      8  CD  LYS A   1      21.521   8.739   2.295  0.00  0.00    -0.024 C 
BRANCH   8   9
ATOM      9  CE  LYS A   1      22.758   7.935   1.932  0.00  0.00    -0.086 C 
BRANCH   9  10
ATOM     10  NZ  LYS A   1      22.580   6.482   2.244  0.00  0.00    +0.380 N 
ATOM     11  HZ1 LYS A   1      22.399   6.367   3.262  0.00  0.00    -0.089 HD
ATOM     12  HZ2 LYS A   1      23.444   5.964   1.983  0.00  0.00    -0.089 HD
ATOM     13  HZ3 LYS A   1      21.774   6.109   1.703  0.00  0.00    -0.089 HD
ENDBRANCH   9  10
ENDBRANCH   8   9
ENDBRANCH   1   8
TORSDOF 7
REMARK  Name = ../refined-set-2016/4oct/4oct_pocket.pdb
REMARK  144 active torsions:
REMARK  status: ('A' for Active; 'I' for Inactive)
REMARK    1  A    between atoms: _1  and  _3
REMARK    2  A    between atoms: _3  and  _4
REMARK    3  A    between atoms: _3  and  _6
REMARK    4  A    between atoms: _6  and  _7
REMARK    5  A    between atoms: _7  and  _8
REMARK    6  A    between atoms: _8  and  _9
REMARK    7  A    between atoms: _18  and  _20
REMARK    8  A    between atoms: _20  and  _21
REMARK    9  A    between atoms: _20  and  _23
REMARK   10  A    between atoms: _23  and  _24
REMARK   11  A    between atoms: _24  and  _25
REMARK   12  A    between atoms: _25  and  _26
REMARK   13  A    between atoms: _26  and  _27
REMARK   14  A    between atoms: _31  and  _33
REMARK   15  A    between atoms: _33  and  _34
REMARK   16  A    between atoms: _33  and  _36
REMARK   17  A    between atoms: _36  and  _37
REMARK   18  A    between atoms: _43  and  _45
REMARK   19  A    between atoms: _45  and  _46
REMARK   20  A    between atoms: _45  and  _48
REMARK   21  A    between atoms: _48  and  _49
REMARK   22  A    between atoms: _54  and  _55
REMARK   23  A    between atoms: _57  and  _59
REMARK   24  A    between atoms: _59  and  _60
REMARK   25  A    between atoms: _59  and  _62
REMARK   26  A    between atoms: _65  and  _67
REMARK   27  A    between atoms: _67  and  _68
REMARK   28  A    between atoms: _67  and  _70
REMARK   29  A    between atoms: _70  and  _71
REMARK   30  A    between atoms: _74  and  _76
REMARK   31  A    between atoms: _76  and  _77
REMARK   32  A    between atoms: _76  and  _79
REMARK   33  A    between atoms: _79  and  _80
REMARK   34  A    between atoms: _85  and  _87
REMARK   35  A    between atoms: _87  and  _88
REMARK   36  A    between atoms: _87  and  _90
REMARK   37  A    between atoms: _90  and  _91
REMARK   38  A    between atoms: _94  and  _96
REMARK   39  A    between atoms: _96  and  _97
REMARK   40  A    between atoms: _96  and  _99
REMARK   41  A    between atoms: _99  and  _100
REMARK   42  A    between atoms: _105  and  _106
REMARK   43  A    between atoms: _108  and  _110
REMARK   44  A    between atoms: _110  and  _111
REMARK   45  A    between atoms: _110  and  _113
REMARK   46  A    between atoms: _115  and  _117
REMARK   47  A    between atoms: _117  and  _118
REMARK   48  A    between atoms: _117  and  _120
REMARK   49  A    between atoms: _120  and  _121
REMARK   50  A    between atoms: _124  and  _126
REMARK   51  A    between atoms: _126  and  _127
REMARK   52  A    between atoms: _126  and  _129
REMARK   53  A    between atoms: _132  and  _134
REMARK   54  A    between atoms: _145  and  _148
REMARK   55  A    between atoms: _153  and  _154
REMARK   56  A    between atoms: _161  and  _162
REMARK   57  A    between atoms: _167  and  _169
REMARK   58  A    between atoms: _169  and  _170
REMARK   59  A    between atoms: _169  and  _172
REMARK   60  A    between atoms: _172  and  _173
REMARK   61  A    between atoms: _179  and  _181
REMARK   62  A    between atoms: _181  and  _182
REMARK   63  A    between atoms: _181  and  _184
REMARK   64  A    between atoms: _184  and  _185
REMARK   65  A    between atoms: _188  and  _190
REMARK   66  A    between atoms: _190  and  _191
REMARK   67  A    between atoms: _190  and  _193
REMARK   68  A    between atoms: _193  and  _194
REMARK   69  A    between atoms: _196  and  _198
REMARK   70  A    between atoms: _198  and  _199
REMARK   71  A    between atoms: _198  and  _201
REMARK   72  A    between atoms: _204  and  _206
REMARK   73  A    between atoms: _206  and  _207
REMARK   74  A    between atoms: _206  and  _209
REMARK   75  A    between atoms: _209  and  _210
REMARK   76  A    between atoms: _212  and  _214
REMARK   77  A    between atoms: _214  and  _215
REMARK   78  A    between atoms: _214  and  _217
REMARK   79  A    between atoms: _217  and  _218
REMARK   80  A    between atoms: _224  and  _226
REMARK   81  A    between atoms: _226  and  _227
REMARK   82  A    between atoms: _226  and  _229
REMARK   83  A    between atoms: _229  and  _230
REMARK   84  A    between atoms: _232  and  _234
REMARK   85  A    between atoms: _234  and  _235
REMARK   86  A    between atoms: _238  and  _240
REMARK   87  A    between atoms: _240  and  _241
REMARK   88  A    between atoms: _240  and  _243
REMARK   89  A    between atoms: _243  and  _244
REMARK   90  A    between atoms: _247  and  _249
REMARK   91  A    between atoms: _249  and  _250
REMARK   92  A    between atoms: _249  and  _252
REMARK   93  A    between atoms: _254  and  _256
REMARK   94  A    between atoms: _256  and  _257
REMARK   95  A    between atoms: _256  and  _259
REMARK   96  A    between atoms: _262  and  _264
REMARK   97  A    between atoms: _264  and  _265
REMARK   98  A    between atoms: _264  and  _267
REMARK   99  A    between atoms: _267  and  _268
REMARK  100  A    between atoms: _271  and  _273
REMARK  101  A    between atoms: _273  and  _274
REMARK  102  A    between atoms: _273  and  _276
REMARK  103  A    between atoms: _276  and  _277
REMARK  104  A    between atoms: _280  and  _282
REMARK  105  A    between atoms: _282  and  _283
REMARK  106  A    between atoms: _282  and  _285
REMARK  107  A    between atoms: _285  and  _286
REMARK  108  A    between atoms: _290  and  MN_382
REMARK  109  A    between atoms: _291  and  _293
REMARK  110  A    between atoms: _293  and  _294
REMARK  111  A    between atoms: _293  and  _296
REMARK  112  A    between atoms: _298  and  _300
REMARK  113  A    between atoms: _300  and  _301
REMARK  114  A    between atoms: _300  and  _303
REMARK  115  A    between atoms: _303  and  _304
REMARK  116  A    between atoms: _307  and  _309
REMARK  117  A    between atoms: _309  and  _310
REMARK  118  A    between atoms: _309  and  _312
REMARK  119  A    between atoms: _312  and  _313
REMARK  120  A    between atoms: _316  and  _318
REMARK  121  A    between atoms: _318  and  _319
REMARK  122  A    between atoms: _318  and  _321
REMARK  123  A    between atoms: _321  and  _322
REMARK  124  A    between atoms: _322  and  _323
REMARK  125  A    between atoms: _323  and  _324
REMARK  126  A    between atoms: _333  and  _335
REMARK  127  A    between atoms: _335  and  _336
REMARK  128  A    between atoms: _339  and  _341
REMARK  129  A    between atoms: _341  and  _342
REMARK  130  A    between atoms: _341  and  _344
REMARK  131  A    between atoms: _347  and  _349
REMARK  132  A    between atoms: _349  and  _350
REMARK  133  A    between atoms: _349  and  _352
REMARK  134  A    between atoms: _352  and  _353
REMARK  135  A    between atoms: _356  and  _358
REMARK  136  A    between atoms: _358  and  _359
REMARK  137  A    between atoms: _358  and  _361
REMARK  138  A    between atoms: _361  and  _362
REMARK  139  A    between atoms: _365  and  _367
REMARK  140  A    between atoms: _367  and  _368
REMARK  141  A    between atoms: _367  and  _370
REMARK  142  A    between atoms: _370  and  _371
REMARK  143  A    between atoms: _371  and  _372
REMARK  144  A    between atoms: _372  and  _373
REMARK                            x       y       z     vdW  Elec       q    Type
REMARK                         _______ _______ _______ _____ _____    ______ ____
ROOT
ATOM      1  CB  PHE A   1      26.086   8.721   8.585  0.00  0.00    +0.051 C 
ENDROOT
BRANCH   1   2
ATOM      2  CG  PHE A   1      25.803   8.378   7.119  0.00  0.00    -0.020 A 
ATOM      3  CD2 PHE A   1      25.533   7.080   6.741  0.00  0.00    -0.004 A 
ATOM      4  CE2 PHE A   1      25.304   6.752   5.406  0.00  0.00    -0.000 A 
ATOM      5  CZ  PHE A   1      25.349   7.733   4.430  0.00  0.00    -0.000 A 
ATOM      6  CE1 PHE A   1      25.624   9.038   4.780  0.00  0.00    -0.000 A 
ATOM      7  CD1 PHE A   1      25.870   9.355   6.120  0.00  0.00    -0.004 A 
ENDBRANCH   1   2
BRANCH   1   8
ATOM      8  CA  PHE A   1      24.944   9.447   9.310  0.00  0.00    +0.137 C 
BRANCH   8   9
ATOM      9  N   PHE A   1      24.669  10.721   8.632  0.00  0.00    -0.239 NA
ATOM     10  H   PHE A   1      25.480  11.270   8.282  0.00  0.00    +0.142 HD
ENDBRANCH   8   9
BRANCH   8  11
ATOM     11  C   PHE A   1      25.369   9.613  10.803  0.00  0.00    +0.224 C 
ATOM     12  O   PHE A   1      26.363  10.261  11.113  0.00  0.00    -0.287 OA
ENDBRANCH   8  11
ENDBRANCH   1   8
TORSDOF 4
REMARK  Name = ../refined-set-2016/4oct/4oct_pocket.pdb
REMARK  144 active torsions:
REMARK  status: ('A' for Active; 'I' for Inactive)
REMARK    1  A    between atoms: _1  and  _3
REMARK    2  A    between atoms: _3  and  _4
REMARK    3  A    between atoms: _3  and  _6
REMARK    4  A    between atoms: _6  and  _7
REMARK    5  A    between atoms: _7  and  _8
REMARK    6  A    between atoms: _8  and  _9
REMARK    7  A    between atoms: _18  and  _20
REMARK    8  A    between atoms: _20  and  _21
REMARK    9  A    between atoms: _20  and  _23
REMARK   10  A    between atoms: _23  and  _24
REMARK   11  A    between atoms: _24  and  _25
REMARK   12  A    between atoms: _25  and  _26
REMARK   13  A    between atoms: _26  and  _27
REMARK   14  A    between atoms: _31  and  _33
REMARK   15  A    between atoms: _33  and  _34
REMARK   16  A    between atoms: _33  and  _36
REMARK   17  A    between atoms: _36  and  _37
REMARK   18  A    between atoms: _43  and  _45
REMARK   19  A    between atoms: _45  and  _46
REMARK   20  A    between atoms: _45  and  _48
REMARK   21  A    between atoms: _48  and  _49
REMARK   22  A    between atoms: _54  and  _55
REMARK   23  A    between atoms: _57  and  _59
REMARK   24  A    between atoms: _59  and  _60
REMARK   25  A    between atoms: _59  and  _62
REMARK   26  A    between atoms: _65  and  _67
REMARK   27  A    between atoms: _67  and  _68
REMARK   28  A    between atoms: _67  and  _70
REMARK   29  A    between atoms: _70  and  _71
REMARK   30  A    between atoms: _74  and  _76
REMARK   31  A    between atoms: _76  and  _77
REMARK   32  A    between atoms: _76  and  _79
REMARK   33  A    between atoms: _79  and  _80
REMARK   34  A    between atoms: _85  and  _87
REMARK   35  A    between atoms: _87  and  _88
REMARK   36  A    between atoms: _87  and  _90
REMARK   37  A    between atoms: _90  and  _91
REMARK   38  A    between atoms: _94  and  _96
REMARK   39  A    between atoms: _96  and  _97
REMARK   40  A    between atoms: _96  and  _99
REMARK   41  A    between atoms: _99  and  _100
REMARK   42  A    between atoms: _105  and  _106
REMARK   43  A    between atoms: _108  and  _110
REMARK   44  A    between atoms: _110  and  _111
REMARK   45  A    between atoms: _110  and  _113
REMARK   46  A    between atoms: _115  and  _117
REMARK   47  A    between atoms: _117  and  _118
REMARK   48  A    between atoms: _117  and  _120
REMARK   49  A    between atoms: _120  and  _121
REMARK   50  A    between atoms: _124  and  _126
REMARK   51  A    between atoms: _126  and  _127
REMARK   52  A    between atoms: _126  and  _129
REMARK   53  A    between atoms: _132  and  _134
REMARK   54  A    between atoms: _145  and  _148
REMARK   55  A    between atoms: _153  and  _154
REMARK   56  A    between atoms: _161  and  _162
REMARK   57  A    between atoms: _167  and  _169
REMARK   58  A    between atoms: _169  and  _170
REMARK   59  A    between atoms: _169  and  _172
REMARK   60  A    between atoms: _172  and  _173
REMARK   61  A    between atoms: _179  and  _181
REMARK   62  A    between atoms: _181  and  _182
REMARK   63  A    between atoms: _181  and  _184
REMARK   64  A    between atoms: _184  and  _185
REMARK   65  A    between atoms: _188  and  _190
REMARK   66  A    between atoms: _190  and  _191
REMARK   67  A    between atoms: _190  and  _193
REMARK   68  A    between atoms: _193  and  _194
REMARK   69  A    between atoms: _196  and  _198
REMARK   70  A    between atoms: _198  and  _199
REMARK   71  A    between atoms: _198  and  _201
REMARK   72  A    between atoms: _204  and  _206
REMARK   73  A    between atoms: _206  and  _207
REMARK   74  A    between atoms: _206  and  _209
REMARK   75  A    between atoms: _209  and  _210
REMARK   76  A    between atoms: _212  and  _214
REMARK   77  A    between atoms: _214  and  _215
REMARK   78  A    between atoms: _214  and  _217
REMARK   79  A    between atoms: _217  and  _218
REMARK   80  A    between atoms: _224  and  _226
REMARK   81  A    between atoms: _226  and  _227
REMARK   82  A    between atoms: _226  and  _229
REMARK   83  A    between atoms: _229  and  _230
REMARK   84  A    between atoms: _232  and  _234
REMARK   85  A    between atoms: _234  and  _235
REMARK   86  A    between atoms: _238  and  _240
REMARK   87  A    between atoms: _240  and  _241
REMARK   88  A    between atoms: _240  and  _243
REMARK   89  A    between atoms: _243  and  _244
REMARK   90  A    between atoms: _247  and  _249
REMARK   91  A    between atoms: _249  and  _250
REMARK   92  A    between atoms: _249  and  _252
REMARK   93  A    between atoms: _254  and  _256
REMARK   94  A    between atoms: _256  and  _257
REMARK   95  A    between atoms: _256  and  _259
REMARK   96  A    between atoms: _262  and  _264
REMARK   97  A    between atoms: _264  and  _265
REMARK   98  A    between atoms: _264  and  _267
REMARK   99  A    between atoms: _267  and  _268
REMARK  100  A    between atoms: _271  and  _273
REMARK  101  A    between atoms: _273  and  _274
REMARK  102  A    between atoms: _273  and  _276
REMARK  103  A    between atoms: _276  and  _277
REMARK  104  A    between atoms: _280  and  _282
REMARK  105  A    between atoms: _282  and  _283
REMARK  106  A    between atoms: _282  and  _285
REMARK  107  A    between atoms: _285  and  _286
REMARK  108  A    between atoms: _290  and  MN_382
REMARK  109  A    between atoms: _291  and  _293
REMARK  110  A    between atoms: _293  and  _294
REMARK  111  A    between atoms: _293  and  _296
REMARK  112  A    between atoms: _298  and  _300
REMARK  113  A    between atoms: _300  and  _301
REMARK  114  A    between atoms: _300  and  _303
REMARK  115  A    between atoms: _303  and  _304
REMARK  116  A    between atoms: _307  and  _309
REMARK  117  A    between atoms: _309  and  _310
REMARK  118  A    between atoms: _309  and  _312
REMARK  119  A    between atoms: _312  and  _313
REMARK  120  A    between atoms: _316  and  _318
REMARK  121  A    between atoms: _318  and  _319
REMARK  122  A    between atoms: _318  and  _321
REMARK  123  A    between atoms: _321  and  _322
REMARK  124  A    between atoms: _322  and  _323
REMARK  125  A    between atoms: _323  and  _324
REMARK  126  A    between atoms: _333  and  _335
REMARK  127  A    between atoms: _335  and  _336
REMARK  128  A    between atoms: _339  and  _341
REMARK  129  A    between atoms: _341  and  _342
REMARK  130  A    between atoms: _341  and  _344
REMARK  131  A    between atoms: _347  and  _349
REMARK  132  A    between atoms: _349  and  _350
REMARK  133  A    between atoms: _349  and  _352
REMARK  134  A    between atoms: _352  and  _353
REMARK  135  A    between atoms: _356  and  _358
REMARK  136  A    between atoms: _358  and  _359
REMARK  137  A    between atoms: _358  and  _361
REMARK  138  A    between atoms: _361  and  _362
REMARK  139  A    between atoms: _365  and  _367
REMARK  140  A    between atoms: _367  and  _368
REMARK  141  A    between atoms: _367  and  _370
REMARK  142  A    between atoms: _370  and  _371
REMARK  143  A    between atoms: _371  and  _372
REMARK  144  A    between atoms: _372  and  _373
REMARK                            x       y       z     vdW  Elec       q    Type
REMARK                         _______ _______ _______ _____ _____    ______ ____
ROOT
ATOM      1  CG  TYR A   1      27.047   2.311   5.108  0.00  0.00    -0.020 A 
ATOM      2  CD2 TYR A   1      26.076   2.702   6.037  0.00  0.00    -0.001 A 
ATOM      3  CE2 TYR A   1      24.807   3.081   5.621  0.00  0.00    +0.036 A 
ATOM      4  CZ  TYR A   1      24.487   3.069   4.241  0.00  0.00    +0.134 A 
ATOM      5  CE1 TYR A   1      25.418   2.680   3.314  0.00  0.00    +0.036 A 
ATOM      6  CD1 TYR A   1      26.690   2.299   3.742  0.00  0.00    -0.001 A 
ENDROOT
BRANCH   4   7
ATOM      7  OH  TYR A   1      23.235   3.440   3.817  0.00  0.00    -0.506 OA
ATOM      8  HH  TYR A   1      22.684   3.692   4.600  0.00  0.00    +0.292 HD
ENDBRANCH   4   7
BRANCH   1   9
ATOM      9  CB  TYR A   1      28.464   1.906   5.560  0.00  0.00    +0.051 C 
BRANCH   9  10
ATOM     10  CA  TYR A   1      29.438   3.094   5.810  0.00  0.00    +0.137 C 
BRANCH  10  11
ATOM     11  N   TYR A   1      28.837   4.048   6.744  0.00  0.00    -0.239 NA
ATOM     12  H   TYR A   1      28.194   4.771   6.364  0.00  0.00    +0.142 HD
ENDBRANCH  10  11
BRANCH  10  13
ATOM     13  C   TYR A   1      29.818   3.835   4.494  0.00  0.00    +0.224 C 
ATOM     14  O   TYR A   1      29.258   4.897   4.190  0.00  0.00    -0.287 OA
ENDBRANCH  10  13
ENDBRANCH   9  10
ENDBRANCH   1   9
TORSDOF 5
REMARK  Name = ../refined-set-2016/4oct/4oct_pocket.pdb
REMARK  144 active torsions:
REMARK  status: ('A' for Active; 'I' for Inactive)
REMARK    1  A    between atoms: _1  and  _3
REMARK    2  A    between atoms: _3  and  _4
REMARK    3  A    between atoms: _3  and  _6
REMARK    4  A    between atoms: _6  and  _7
REMARK    5  A    between atoms: _7  and  _8
REMARK    6  A    between atoms: _8  and  _9
REMARK    7  A    between atoms: _18  and  _20
REMARK    8  A    between atoms: _20  and  _21
REMARK    9  A    between atoms: _20  and  _23
REMARK   10  A    between atoms: _23  and  _24
REMARK   11  A    between atoms: _24  and  _25
REMARK   12  A    between atoms: _25  and  _26
REMARK   13  A    between atoms: _26  and  _27
REMARK   14  A    between atoms: _31  and  _33
REMARK   15  A    between atoms: _33  and  _34
REMARK   16  A    between atoms: _33  and  _36
REMARK   17  A    between atoms: _36  and  _37
REMARK   18  A    between atoms: _43  and  _45
REMARK   19  A    between atoms: _45  and  _46
REMARK   20  A    between atoms: _45  and  _48
REMARK   21  A    between atoms: _48  and  _49
REMARK   22  A    between atoms: _54  and  _55
REMARK   23  A    between atoms: _57  and  _59
REMARK   24  A    between atoms: _59  and  _60
REMARK   25  A    between atoms: _59  and  _62
REMARK   26  A    between atoms: _65  and  _67
REMARK   27  A    between atoms: _67  and  _68
REMARK   28  A    between atoms: _67  and  _70
REMARK   29  A    between atoms: _70  and  _71
REMARK   30  A    between atoms: _74  and  _76
REMARK   31  A    between atoms: _76  and  _77
REMARK   32  A    between atoms: _76  and  _79
REMARK   33  A    between atoms: _79  and  _80
REMARK   34  A    between atoms: _85  and  _87
REMARK   35  A    between atoms: _87  and  _88
REMARK   36  A    between atoms: _87  and  _90
REMARK   37  A    between atoms: _90  and  _91
REMARK   38  A    between atoms: _94  and  _96
REMARK   39  A    between atoms: _96  and  _97
REMARK   40  A    between atoms: _96  and  _99
REMARK   41  A    between atoms: _99  and  _100
REMARK   42  A    between atoms: _105  and  _106
REMARK   43  A    between atoms: _108  and  _110
REMARK   44  A    between atoms: _110  and  _111
REMARK   45  A    between atoms: _110  and  _113
REMARK   46  A    between atoms: _115  and  _117
REMARK   47  A    between atoms: _117  and  _118
REMARK   48  A    between atoms: _117  and  _120
REMARK   49  A    between atoms: _120  and  _121
REMARK   50  A    between atoms: _124  and  _126
REMARK   51  A    between atoms: _126  and  _127
REMARK   52  A    between atoms: _126  and  _129
REMARK   53  A    between atoms: _132  and  _134
REMARK   54  A    between atoms: _145  and  _148
REMARK   55  A    between atoms: _153  and  _154
REMARK   56  A    between atoms: _161  and  _162
REMARK   57  A    between atoms: _167  and  _169
REMARK   58  A    between atoms: _169  and  _170
REMARK   59  A    between atoms: _169  and  _172
REMARK   60  A    between atoms: _172  and  _173
REMARK   61  A    between atoms: _179  and  _181
REMARK   62  A    between atoms: _181  and  _182
REMARK   63  A    between atoms: _181  and  _184
REMARK   64  A    between atoms: _184  and  _185
REMARK   65  A    between atoms: _188  and  _190
REMARK   66  A    between atoms: _190  and  _191
REMARK   67  A    between atoms: _190  and  _193
REMARK   68  A    between atoms: _193  and  _194
REMARK   69  A    between atoms: _196  and  _198
REMARK   70  A    between atoms: _198  and  _199
REMARK   71  A    between atoms: _198  and  _201
REMARK   72  A    between atoms: _204  and  _206
REMARK   73  A    between atoms: _206  and  _207
REMARK   74  A    between atoms: _206  and  _209
REMARK   75  A    between atoms: _209  and  _210
REMARK   76  A    between atoms: _212  and  _214
REMARK   77  A    between atoms: _214  and  _215
REMARK   78  A    between atoms: _214  and  _217
REMARK   79  A    between atoms: _217  and  _218
REMARK   80  A    between atoms: _224  and  _226
REMARK   81  A    between atoms: _226  and  _227
REMARK   82  A    between atoms: _226  and  _229
REMARK   83  A    between atoms: _229  and  _230
REMARK   84  A    between atoms: _232  and  _234
REMARK   85  A    between atoms: _234  and  _235
REMARK   86  A    between atoms: _238  and  _240
REMARK   87  A    between atoms: _240  and  _241
REMARK   88  A    between atoms: _240  and  _243
REMARK   89  A    between atoms: _243  and  _244
REMARK   90  A    between atoms: _247  and  _249
REMARK   91  A    between atoms: _249  and  _250
REMARK   92  A    between atoms: _249  and  _252
REMARK   93  A    between atoms: _254  and  _256
REMARK   94  A    between atoms: _256  and  _257
REMARK   95  A    between atoms: _256  and  _259
REMARK   96  A    between atoms: _262  and  _264
REMARK   97  A    between atoms: _264  and  _265
REMARK   98  A    between atoms: _264  and  _267
REMARK   99  A    between atoms: _267  and  _268
REMARK  100  A    between atoms: _271  and  _273
REMARK  101  A    between atoms: _273  and  _274
REMARK  102  A    between atoms: _273  and  _276
REMARK  103  A    between atoms: _276  and  _277
REMARK  104  A    between atoms: _280  and  _282
REMARK  105  A    between atoms: _282  and  _283
REMARK  106  A    between atoms: _282  and  _285
REMARK  107  A    between atoms: _285  and  _286
REMARK  108  A    between atoms: _290  and  MN_382
REMARK  109  A    between atoms: _291  and  _293
REMARK  110  A    between atoms: _293  and  _294
REMARK  111  A    between atoms: _293  and  _296
REMARK  112  A    between atoms: _298  and  _300
REMARK  113  A    between atoms: _300  and  _301
REMARK  114  A    between atoms: _300  and  _303
REMARK  115  A    between atoms: _303  and  _304
REMARK  116  A    between atoms: _307  and  _309
REMARK  117  A    between atoms: _309  and  _310
REMARK  118  A    between atoms: _309  and  _312
REMARK  119  A    between atoms: _312  and  _313
REMARK  120  A    between atoms: _316  and  _318
REMARK  121  A    between atoms: _318  and  _319
REMARK  122  A    between atoms: _318  and  _321
REMARK  123  A    between atoms: _321  and  _322
REMARK  124  A    between atoms: _322  and  _323
REMARK  125  A    between atoms: _323  and  _324
REMARK  126  A    between atoms: _333  and  _335
REMARK  127  A    between atoms: _335  and  _336
REMARK  128  A    between atoms: _339  and  _341
REMARK  129  A    between atoms: _341  and  _342
REMARK  130  A    between atoms: _341  and  _344
REMARK  131  A    between atoms: _347  and  _349
REMARK  132  A    between atoms: _349  and  _350
REMARK  133  A    between atoms: _349  and  _352
REMARK  134  A    between atoms: _352  and  _353
REMARK  135  A    between atoms: _356  and  _358
REMARK  136  A    between atoms: _358  and  _359
REMARK  137  A    between atoms: _358  and  _361
REMARK  138  A    between atoms: _361  and  _362
REMARK  139  A    between atoms: _365  and  _367
REMARK  140  A    between atoms: _367  and  _368
REMARK  141  A    between atoms: _367  and  _370
REMARK  142  A    between atoms: _370  and  _371
REMARK  143  A    between atoms: _371  and  _372
REMARK  144  A    between atoms: _372  and  _373
REMARK                            x       y       z     vdW  Elec       q    Type
REMARK                         _______ _______ _______ _____ _____    ______ ____
ROOT
ATOM      1  CA  ASN A   3      17.738  11.175   4.387  0.00  0.00    +0.158 C 
ENDROOT
BRANCH   1   4
ATOM      2  C   ILE A   2      18.755  11.235   6.634  0.00  0.00    +0.241 C 
ATOM      3  O   ILE A   2      19.803  11.736   6.241  0.00  0.00    -0.273 OA
ATOM      4  N   ASN A   3      17.790  10.796   5.810  0.00  0.00    -0.297 N 
ATOM      5  H   ASN A   3      17.054  10.167   6.189  0.00  0.00    +0.150 HD
BRANCH   2   6
ATOM      6  CA  ILE A   2      18.552  10.999   8.147  0.00  0.00    +0.148 C 
BRANCH   6   9
ATOM      7  C   VAL A   1      19.390   8.818   8.746  0.00  0.00    +0.238 C 
ATOM      8  O   VAL A   1      18.264   8.318   8.659  0.00  0.00    -0.274 OA
ATOM      9  N   ILE A   2      19.610  10.099   8.567  0.00  0.00    -0.297 N 
ATOM     10  H   ILE A   2      20.565  10.478   8.730  0.00  0.00    +0.150 HD
BRANCH   7  11
ATOM     11  CA  VAL A   1      20.600   7.976   9.121  0.00  0.00    +0.145 C 
BRANCH  11  12
ATOM     12  CB  VAL A   1      20.903   6.972   7.979  0.00  0.00    +0.025 C 
ATOM     13  CG2 VAL A   1      22.153   6.168   8.284  0.00  0.00    +0.002 C 
ATOM     14  CG1 VAL A   1      21.044   7.693   6.628  0.00  0.00    +0.002 C 
ENDBRANCH  11  12
BRANCH  11  15
ATOM     15  N   VAL A   1      20.263   7.274  10.375  0.00  0.00    -0.238 NA
ATOM     16  H   VAL A   1      19.421   6.664  10.384  0.00  0.00    +0.142 HD
ENDBRANCH  11  15
ENDBRANCH   7  11
ENDBRANCH   6   9
BRANCH   6  17
ATOM     17  CB  ILE A   2      18.643  12.314   8.930  0.00  0.00    +0.027 C 
ATOM     18  CG2 ILE A   2      17.506  13.256   8.560  0.00  0.00    +0.002 C 
BRANCH  17  19
ATOM     19  CG1 ILE A   2      18.632  12.035  10.469  0.00  0.00    +0.002 C 
ATOM     20  CD1 ILE A   2      18.610  13.306  11.310  0.00  0.00    +0.000 C 
ENDBRANCH  17  19
ENDBRANCH   6  17
ENDBRANCH   2   6
ENDBRANCH   1   4
BRANCH   1  21
ATOM     21  C   ASN A   3      16.786  12.329   4.214  0.00  0.00    +0.241 C 
ATOM     22  O   ASN A   3      15.604  12.193   4.548  0.00  0.00    -0.273 OA
ATOM     23  N   ASP A   4      17.281  13.449   3.694  0.00  0.00    -0.297 N 
ATOM     24  H   ASP A   4      18.294  13.489   3.463  0.00  0.00    +0.150 HD
BRANCH  23  25
ATOM     25  CA  ASP A   4      16.467  14.606   3.439  0.00  0.00    +0.160 C 
BRANCH  25  26
ATOM     26  C   ASP A   4      16.246  14.754   1.937  0.00  0.00    +0.241 C 
ATOM     27  N   TYR A   5      14.999  14.653   1.535  0.00  0.00    -0.298 N 
ATOM     28  H   TYR A   5      14.246  14.538   2.243  0.00  0.00    +0.150 HD
ATOM     29  O   ASP A   4      17.191  14.951   1.170  0.00  0.00    -0.273 OA
BRANCH  27  30
ATOM     30  CA  TYR A   5      14.638  14.699   0.093  0.00  0.00    +0.141 C 
BRANCH  30  31
ATOM     31  C   TYR A   5      14.046  16.037  -0.328  0.00  0.00    +0.227 C 
ATOM     32  O   TYR A   5      13.112  16.532   0.272  0.00  0.00    -0.286 OA
ENDBRANCH  30  31
BRANCH  30  33
ATOM     33  CB  TYR A   5      13.631  13.616  -0.242  0.00  0.00    +0.054 C 
BRANCH  33  34
ATOM     34  CG  TYR A   5      14.123  12.220   0.000  0.00  0.00    -0.020 A 
ATOM     35  CD2 TYR A   5      13.894  11.587   1.223  0.00  0.00    -0.001 A 
ATOM     36  CE2 TYR A   5      14.332  10.290   1.462  0.00  0.00    +0.036 A 
ATOM     37  CZ  TYR A   5      15.033   9.620   0.490  0.00  0.00    +0.134 A 
ATOM     38  CE1 TYR A   5      15.275  10.227  -0.763  0.00  0.00    +0.036 A 
ATOM     39  CD1 TYR A   5      14.827  11.525  -0.981  0.00  0.00    -0.001 A 
BRANCH  37  40
ATOM     40  OH  TYR A   5      15.460   8.345   0.739  0.00  0.00    -0.506 OA
ATOM     41  HH  TYR A   5      14.678   7.767   0.925  0.00  0.00    +0.292 HD
ENDBRANCH  37  40
ENDBRANCH  33  34
ENDBRANCH  30  33
ENDBRANCH  27  30
ENDBRANCH  25  26
BRANCH  25  42
ATOM     42  CB  ASP A   4      17.166  15.858   3.959  0.00  0.00    +0.143 C 
BRANCH  42  43
ATOM     43  CG  ASP A   4      16.233  17.039   4.102  0.00  0.00    +0.367 C 
ATOM     44  OD2 ASP A   4      16.742  18.132   4.467  0.00  0.00    -0.246 OA
ATOM     45  OD1 ASP A   4      15.003  16.876   3.924  0.00  0.00    -0.246 OA
ENDBRANCH  42  43
ENDBRANCH  25  42
ENDBRANCH  23  25
ENDBRANCH   1  21
BRANCH   1  46
ATOM     46  CB  ASN A   3      17.185  10.048   3.490  0.00  0.00    +0.114 C 
BRANCH  46  47
ATOM     47  CG  ASN A   3      18.008   8.790   3.524  0.00  0.00    +0.222 C 
ATOM     48  OD1 ASN A   3      19.024   8.709   4.183  0.00  0.00    -0.275 OA
ATOM     49  ND2 ASN A   3      17.541   7.780   2.816  0.00  0.00    -0.329 N 
ATOM     50 HD21 ASN A   3      18.048   6.872   2.809  0.00  0.00    +0.145 HD
ATOM     51 HD22 ASN A   3      16.666   7.892   2.265  0.00  0.00    +0.145 HD
ENDBRANCH  46  47
ENDBRANCH   1  46
TORSDOF 20
REMARK  Name = ../refined-set-2016/4oct/4oct_pocket.pdb
REMARK  144 active torsions:
REMARK  status: ('A' for Active; 'I' for Inactive)
REMARK    1  A    between atoms: _1  and  _3
REMARK    2  A    between atoms: _3  and  _4
REMARK    3  A    between atoms: _3  and  _6
REMARK    4  A    between atoms: _6  and  _7
REMARK    5  A    between atoms: _7  and  _8
REMARK    6  A    between atoms: _8  and  _9
REMARK    7  A    between atoms: _18  and  _20
REMARK    8  A    between atoms: _20  and  _21
REMARK    9  A    between atoms: _20  and  _23
REMARK   10  A    between atoms: _23  and  _24
REMARK   11  A    between atoms: _24  and  _25
REMARK   12  A    between atoms: _25  and  _26
REMARK   13  A    between atoms: _26  and  _27
REMARK   14  A    between atoms: _31  and  _33
REMARK   15  A    between atoms: _33  and  _34
REMARK   16  A    between atoms: _33  and  _36
REMARK   17  A    between atoms: _36  and  _37
REMARK   18  A    between atoms: _43  and  _45
REMARK   19  A    between atoms: _45  and  _46
REMARK   20  A    between atoms: _45  and  _48
REMARK   21  A    between atoms: _48  and  _49
REMARK   22  A    between atoms: _54  and  _55
REMARK   23  A    between atoms: _57  and  _59
REMARK   24  A    between atoms: _59  and  _60
REMARK   25  A    between atoms: _59  and  _62
REMARK   26  A    between atoms: _65  and  _67
REMARK   27  A    between atoms: _67  and  _68
REMARK   28  A    between atoms: _67  and  _70
REMARK   29  A    between atoms: _70  and  _71
REMARK   30  A    between atoms: _74  and  _76
REMARK   31  A    between atoms: _76  and  _77
REMARK   32  A    between atoms: _76  and  _79
REMARK   33  A    between atoms: _79  and  _80
REMARK   34  A    between atoms: _85  and  _87
REMARK   35  A    between atoms: _87  and  _88
REMARK   36  A    between atoms: _87  and  _90
REMARK   37  A    between atoms: _90  and  _91
REMARK   38  A    between atoms: _94  and  _96
REMARK   39  A    between atoms: _96  and  _97
REMARK   40  A    between atoms: _96  and  _99
REMARK   41  A    between atoms: _99  and  _100
REMARK   42  A    between atoms: _105  and  _106
REMARK   43  A    between atoms: _108  and  _110
REMARK   44  A    between atoms: _110  and  _111
REMARK   45  A    between atoms: _110  and  _113
REMARK   46  A    between atoms: _115  and  _117
REMARK   47  A    between atoms: _117  and  _118
REMARK   48  A    between atoms: _117  and  _120
REMARK   49  A    between atoms: _120  and  _121
REMARK   50  A    between atoms: _124  and  _126
REMARK   51  A    between atoms: _126  and  _127
REMARK   52  A    between atoms: _126  and  _129
REMARK   53  A    between atoms: _132  and  _134
REMARK   54  A    between atoms: _145  and  _148
REMARK   55  A    between atoms: _153  and  _154
REMARK   56  A    between atoms: _161  and  _162
REMARK   57  A    between atoms: _167  and  _169
REMARK   58  A    between atoms: _169  and  _170
REMARK   59  A    between atoms: _169  and  _172
REMARK   60  A    between atoms: _172  and  _173
REMARK   61  A    between atoms: _179  and  _181
REMARK   62  A    between atoms: _181  and  _182
REMARK   63  A    between atoms: _181  and  _184
REMARK   64  A    between atoms: _184  and  _185
REMARK   65  A    between atoms: _188  and  _190
REMARK   66  A    between atoms: _190  and  _191
REMARK   67  A    between atoms: _190  and  _193
REMARK   68  A    between atoms: _193  and  _194
REMARK   69  A    between atoms: _196  and  _198
REMARK   70  A    between atoms: _198  and  _199
REMARK   71  A    between atoms: _198  and  _201
REMARK   72  A    between atoms: _204  and  _206
REMARK   73  A    between atoms: _206  and  _207
REMARK   74  A    between atoms: _206  and  _209
REMARK   75  A    between atoms: _209  and  _210
REMARK   76  A    between atoms: _212  and  _214
REMARK   77  A    between atoms: _214  and  _215
REMARK   78  A    between atoms: _214  and  _217
REMARK   79  A    between atoms: _217  and  _218
REMARK   80  A    between atoms: _224  and  _226
REMARK   81  A    between atoms: _226  and  _227
REMARK   82  A    between atoms: _226  and  _229
REMARK   83  A    between atoms: _229  and  _230
REMARK   84  A    between atoms: _232  and  _234
REMARK   85  A    between atoms: _234  and  _235
REMARK   86  A    between atoms: _238  and  _240
REMARK   87  A    between atoms: _240  and  _241
REMARK   88  A    between atoms: _240  and  _243
REMARK   89  A    between atoms: _243  and  _244
REMARK   90  A    between atoms: _247  and  _249
REMARK   91  A    between atoms: _249  and  _250
REMARK   92  A    between atoms: _249  and  _252
REMARK   93  A    between atoms: _254  and  _256
REMARK   94  A    between atoms: _256  and  _257
REMARK   95  A    between atoms: _256  and  _259
REMARK   96  A    between atoms: _262  and  _264
REMARK   97  A    between atoms: _264  and  _265
REMARK   98  A    between atoms: _264  and  _267
REMARK   99  A    between atoms: _267  and  _268
REMARK  100  A    between atoms: _271  and  _273
REMARK  101  A    between atoms: _273  and  _274
REMARK  102  A    between atoms: _273  and  _276
REMARK  103  A    between atoms: _276  and  _277
REMARK  104  A    between atoms: _280  and  _282
REMARK  105  A    between atoms: _282  and  _283
REMARK  106  A    between atoms: _282  and  _285
REMARK  107  A    between atoms: _285  and  _286
REMARK  108  A    between atoms: _290  and  MN_382
REMARK  109  A    between atoms: _291  and  _293
REMARK  110  A    between atoms: _293  and  _294
REMARK  111  A    between atoms: _293  and  _296
REMARK  112  A    between atoms: _298  and  _300
REMARK  113  A    between atoms: _300  and  _301
REMARK  114  A    between atoms: _300  and  _303
REMARK  115  A    between atoms: _303  and  _304
REMARK  116  A    between atoms: _307  and  _309
REMARK  117  A    between atoms: _309  and  _310
REMARK  118  A    between atoms: _309  and  _312
REMARK  119  A    between atoms: _312  and  _313
REMARK  120  A    between atoms: _316  and  _318
REMARK  121  A    between atoms: _318  and  _319
REMARK  122  A    between atoms: _318  and  _321
REMARK  123  A    between atoms: _321  and  _322
REMARK  124  A    between atoms: _322  and  _323
REMARK  125  A    between atoms: _323  and  _324
REMARK  126  A    between atoms: _333  and  _335
REMARK  127  A    between atoms: _335  and  _336
REMARK  128  A    between atoms: _339  and  _341
REMARK  129  A    between atoms: _341  and  _342
REMARK  130  A    between atoms: _341  and  _344
REMARK  131  A    between atoms: _347  and  _349
REMARK  132  A    between atoms: _349  and  _350
REMARK  133  A    between atoms: _349  and  _352
REMARK  134  A    between atoms: _352  and  _353
REMARK  135  A    between atoms: _356  and  _358
REMARK  136  A    between atoms: _358  and  _359
REMARK  137  A    between atoms: _358  and  _361
REMARK  138  A    between atoms: _361  and  _362
REMARK  139  A    between atoms: _365  and  _367
REMARK  140  A    between atoms: _367  and  _368
REMARK  141  A    between atoms: _367  and  _370
REMARK  142  A    between atoms: _370  and  _371
REMARK  143  A    between atoms: _371  and  _372
REMARK  144  A    between atoms: _372  and  _373
REMARK                            x       y       z     vdW  Elec       q    Type
REMARK                         _______ _______ _______ _____ _____    ______ ____
ROOT
ATOM      1  CA  ILE A   2      16.752   6.824  -4.237  0.00  0.00    +0.148 C 
ENDROOT
BRANCH   1   4
ATOM      2  C   CYS A   1      15.782   9.034  -4.543  0.00  0.00    +0.239 C 
ATOM      3  O   CYS A   1      16.799   9.604  -4.135  0.00  0.00    -0.274 OA
ATOM      4  N   ILE A   2      15.639   7.712  -4.542  0.00  0.00    -0.297 N 
ATOM      5  H   ILE A   2      14.709   7.302  -4.765  0.00  0.00    +0.150 HD
BRANCH   2   6
ATOM      6  CA  CYS A   1      14.592   9.837  -5.052  0.00  0.00    +0.156 C 
BRANCH   6   7
ATOM      7  N   CYS A   1      14.880  11.254  -4.973  0.00  0.00    -0.237 NA
ATOM      8  H   CYS A   1      15.851  11.565  -4.770  0.00  0.00    +0.142 HD
ENDBRANCH   6   7
BRANCH   6   9
ATOM      9  CB  CYS A   1      14.307   9.443  -6.478  0.00  0.00    +0.095 C 
ATOM     10  SG  CYS A   1      15.783   9.398  -7.482  0.00  0.00    -0.080 S 
ENDBRANCH   6   9
ENDBRANCH   2   6
ENDBRANCH   1   4
BRANCH   1  11
ATOM     11  C   ILE A   2      16.611   5.623  -5.140  0.00  0.00    +0.241 C 
ATOM     12  O   ILE A   2      15.526   5.035  -5.225  0.00  0.00    -0.273 OA
ATOM     13  N   VAL A   3      17.691   5.266  -5.829  0.00  0.00    -0.298 N 
ATOM     14  H   VAL A   3      18.590   5.769  -5.686  0.00  0.00    +0.150 HD
BRANCH  13  15
ATOM     15  CA  VAL A   3      17.612   4.165  -6.787  0.00  0.00    +0.137 C 
BRANCH  15  16
ATOM     16  CB  VAL A   3      18.684   4.221  -7.917  0.00  0.00    +0.026 C 
ATOM     17  CG2 VAL A   3      20.108   4.222  -7.334  0.00  0.00    +0.002 C 
ATOM     18  CG1 VAL A   3      18.425   5.426  -8.807  0.00  0.00    +0.002 C 
ENDBRANCH  15  16
BRANCH  15  19
ATOM     19  C   VAL A   3      17.614   2.806  -6.121  0.00  0.00    +0.227 C 
ATOM     20  O   VAL A   3      17.982   2.653  -4.941  0.00  0.00    -0.286 OA
ENDBRANCH  15  19
ENDBRANCH  13  15
ENDBRANCH   1  11
BRANCH   1  21
ATOM     21  CB  ILE A   2      16.784   6.417  -2.730  0.00  0.00    +0.027 C 
ATOM     22  CG2 ILE A   2      15.581   5.549  -2.352  0.00  0.00    +0.002 C 
BRANCH  21  23
ATOM     23  CG1 ILE A   2      18.103   5.711  -2.375  0.00  0.00    +0.002 C 
ATOM     24  CD1 ILE A   2      18.549   5.943  -0.927  0.00  0.00    +0.000 C 
ENDBRANCH  21  23
ENDBRANCH   1  21
TORSDOF 10
REMARK  Name = ../refined-set-2016/4oct/4oct_pocket.pdb
REMARK  144 active torsions:
REMARK  status: ('A' for Active; 'I' for Inactive)
REMARK    1  A    between atoms: _1  and  _3
REMARK    2  A    between atoms: _3  and  _4
REMARK    3  A    between atoms: _3  and  _6
REMARK    4  A    between atoms: _6  and  _7
REMARK    5  A    between atoms: _7  and  _8
REMARK    6  A    between atoms: _8  and  _9
REMARK    7  A    between atoms: _18  and  _20
REMARK    8  A    between atoms: _20  and  _21
REMARK    9  A    between atoms: _20  and  _23
REMARK   10  A    between atoms: _23  and  _24
REMARK   11  A    between atoms: _24  and  _25
REMARK   12  A    between atoms: _25  and  _26
REMARK   13  A    between atoms: _26  and  _27
REMARK   14  A    between atoms: _31  and  _33
REMARK   15  A    between atoms: _33  and  _34
REMARK   16  A    between atoms: _33  and  _36
REMARK   17  A    between atoms: _36  and  _37
REMARK   18  A    between atoms: _43  and  _45
REMARK   19  A    between atoms: _45  and  _46
REMARK   20  A    between atoms: _45  and  _48
REMARK   21  A    between atoms: _48  and  _49
REMARK   22  A    between atoms: _54  and  _55
REMARK   23  A    between atoms: _57  and  _59
REMARK   24  A    between atoms: _59  and  _60
REMARK   25  A    between atoms: _59  and  _62
REMARK   26  A    between atoms: _65  and  _67
REMARK   27  A    between atoms: _67  and  _68
REMARK   28  A    between atoms: _67  and  _70
REMARK   29  A    between atoms: _70  and  _71
REMARK   30  A    between atoms: _74  and  _76
REMARK   31  A    between atoms: _76  and  _77
REMARK   32  A    between atoms: _76  and  _79
REMARK   33  A    between atoms: _79  and  _80
REMARK   34  A    between atoms: _85  and  _87
REMARK   35  A    between atoms: _87  and  _88
REMARK   36  A    between atoms: _87  and  _90
REMARK   37  A    between atoms: _90  and  _91
REMARK   38  A    between atoms: _94  and  _96
REMARK   39  A    between atoms: _96  and  _97
REMARK   40  A    between atoms: _96  and  _99
REMARK   41  A    between atoms: _99  and  _100
REMARK   42  A    between atoms: _105  and  _106
REMARK   43  A    between atoms: _108  and  _110
REMARK   44  A    between atoms: _110  and  _111
REMARK   45  A    between atoms: _110  and  _113
REMARK   46  A    between atoms: _115  and  _117
REMARK   47  A    between atoms: _117  and  _118
REMARK   48  A    between atoms: _117  and  _120
REMARK   49  A    between atoms: _120  and  _121
REMARK   50  A    between atoms: _124  and  _126
REMARK   51  A    between atoms: _126  and  _127
REMARK   52  A    between atoms: _126  and  _129
REMARK   53  A    between atoms: _132  and  _134
REMARK   54  A    between atoms: _145  and  _148
REMARK   55  A    between atoms: _153  and  _154
REMARK   56  A    between atoms: _161  and  _162
REMARK   57  A    between atoms: _167  and  _169
REMARK   58  A    between atoms: _169  and  _170
REMARK   59  A    between atoms: _169  and  _172
REMARK   60  A    between atoms: _172  and  _173
REMARK   61  A    between atoms: _179  and  _181
REMARK   62  A    between atoms: _181  and  _182
REMARK   63  A    between atoms: _181  and  _184
REMARK   64  A    between atoms: _184  and  _185
REMARK   65  A    between atoms: _188  and  _190
REMARK   66  A    between atoms: _190  and  _191
REMARK   67  A    between atoms: _190  and  _193
REMARK   68  A    between atoms: _193  and  _194
REMARK   69  A    between atoms: _196  and  _198
REMARK   70  A    between atoms: _198  and  _199
REMARK   71  A    between atoms: _198  and  _201
REMARK   72  A    between atoms: _204  and  _206
REMARK   73  A    between atoms: _206  and  _207
REMARK   74  A    between atoms: _206  and  _209
REMARK   75  A    between atoms: _209  and  _210
REMARK   76  A    between atoms: _212  and  _214
REMARK   77  A    between atoms: _214  and  _215
REMARK   78  A    between atoms: _214  and  _217
REMARK   79  A    between atoms: _217  and  _218
REMARK   80  A    between atoms: _224  and  _226
REMARK   81  A    between atoms: _226  and  _227
REMARK   82  A    between atoms: _226  and  _229
REMARK   83  A    between atoms: _229  and  _230
REMARK   84  A    between atoms: _232  and  _234
REMARK   85  A    between atoms: _234  and  _235
REMARK   86  A    between atoms: _238  and  _240
REMARK   87  A    between atoms: _240  and  _241
REMARK   88  A    between atoms: _240  and  _243
REMARK   89  A    between atoms: _243  and  _244
REMARK   90  A    between atoms: _247  and  _249
REMARK   91  A    between atoms: _249  and  _250
REMARK   92  A    between atoms: _249  and  _252
REMARK   93  A    between atoms: _254  and  _256
REMARK   94  A    between atoms: _256  and  _257
REMARK   95  A    between atoms: _256  and  _259
REMARK   96  A    between atoms: _262  and  _264
REMARK   97  A    between atoms: _264  and  _265
REMARK   98  A    between atoms: _264  and  _267
REMARK   99  A    between atoms: _267  and  _268
REMARK  100  A    between atoms: _271  and  _273
REMARK  101  A    between atoms: _273  and  _274
REMARK  102  A    between atoms: _273  and  _276
REMARK  103  A    between atoms: _276  and  _277
REMARK  104  A    between atoms: _280  and  _282
REMARK  105  A    between atoms: _282  and  _283
REMARK  106  A    between atoms: _282  and  _285
REMARK  107  A    between atoms: _285  and  _286
REMARK  108  A    between atoms: _290  and  MN_382
REMARK  109  A    between atoms: _291  and  _293
REMARK  110  A    between atoms: _293  and  _294
REMARK  111  A    between atoms: _293  and  _296
REMARK  112  A    between atoms: _298  and  _300
REMARK  113  A    between atoms: _300  and  _301
REMARK  114  A    between atoms: _300  and  _303
REMARK  115  A    between atoms: _303  and  _304
REMARK  116  A    between atoms: _307  and  _309
REMARK  117  A    between atoms: _309  and  _310
REMARK  118  A    between atoms: _309  and  _312
REMARK  119  A    between atoms: _312  and  _313
REMARK  120  A    between atoms: _316  and  _318
REMARK  121  A    between atoms: _318  and  _319
REMARK  122  A    between atoms: _318  and  _321
REMARK  123  A    between atoms: _321  and  _322
REMARK  124  A    between atoms: _322  and  _323
REMARK  125  A    between atoms: _323  and  _324
REMARK  126  A    between atoms: _333  and  _335
REMARK  127  A    between atoms: _335  and  _336
REMARK  128  A    between atoms: _339  and  _341
REMARK  129  A    between atoms: _341  and  _342
REMARK  130  A    between atoms: _341  and  _344
REMARK  131  A    between atoms: _347  and  _349
REMARK  132  A    between atoms: _349  and  _350
REMARK  133  A    between atoms: _349  and  _352
REMARK  134  A    between atoms: _352  and  _353
REMARK  135  A    between atoms: _356  and  _358
REMARK  136  A    between atoms: _358  and  _359
REMARK  137  A    between atoms: _358  and  _361
REMARK  138  A    between atoms: _361  and  _362
REMARK  139  A    between atoms: _365  and  _367
REMARK  140  A    between atoms: _367  and  _368
REMARK  141  A    between atoms: _367  and  _370
REMARK  142  A    between atoms: _370  and  _371
REMARK  143  A    between atoms: _371  and  _372
REMARK  144  A    between atoms: _372  and  _373
REMARK                            x       y       z     vdW  Elec       q    Type
REMARK                         _______ _______ _______ _____ _____    ______ ____
ROOT
ATOM      1  C   UNK A   1      18.940  -1.166  -3.661  0.00  0.00    +0.000 C 
ATOM      2  C   UNK A   1      18.328  -2.128  -2.671  0.00  0.00    +0.000 C 
ATOM      3  N   CYS A   2      19.186  -2.946  -2.057  0.00  0.00    +0.000 N 
ATOM      4  CA  CYS A   2      18.869  -3.644  -0.824  0.00  0.00    +0.000 C 
ATOM      5  C   CYS A   2      19.761  -3.047   0.328  0.00  0.00    +0.000 C 
ATOM      6  N   UNK A   3      19.165  -2.765   1.484  0.00  0.00    +0.000 N 
ATOM      7  C   UNK A   3      19.969  -2.301   2.626  0.00  0.00    +0.000 C 
ATOM      8  C   UNK A   3      19.119  -2.067   3.875  0.00  0.00    +0.000 C 
ATOM      9  C   UNK A   3      18.459  -0.681   3.904  0.00  0.00    +0.000 C 
ATOM     10  O   UNK A   3      18.273  -0.167   5.025  0.00  0.00    +0.000 OA
ATOM     11  O   UNK A   3      18.152  -0.087   2.852  0.00  0.00    +0.000 OA
ATOM     12 MN   UNK A   3      17.021   1.173   1.971  0.00  0.00    +0.000 Mn
ATOM     13  N   UNK A   3      17.912   1.210   0.113  0.00  0.00    +0.000 N 
ATOM     14  C   UNK A   3      18.848   0.355  -0.434  0.00  0.00    +0.000 A 
ATOM     15  C   UNK A   3      18.878   0.584  -1.774  0.00  0.00    +0.000 A 
ATOM     16  N   UNK A   3      17.967   1.587  -2.006  0.00  0.00    +0.000 NA
ATOM     17  C   UNK A   3      17.409   1.955  -0.862  0.00  0.00    +0.000 A 
ATOM     18  H   UNK A   3      18.135  -2.872   1.580  0.00  0.00    +0.000 HD
ATOM     19  O   CYS A   2      20.978  -2.835   0.157  0.00  0.00    +0.000 OA
ATOM     20  H   CYS A   2      20.125  -3.090  -2.481  0.00  0.00    +0.000 HD
ATOM     21  O   UNK A   1      17.114  -2.131  -2.473  0.00  0.00    +0.000 OA
ATOM     22  C   UNK A   3      19.690  -0.051  -2.878  0.00  0.00    +0.000 C 
ENDROOT
BRANCH   7  23
ATOM     23  C   UNK A   3      20.994  -3.412   2.872  0.00  0.00    +0.000 C 
ATOM     24  O   UNK A   3      20.624  -4.566   3.046  0.00  0.00    +0.000 OA
ATOM     25  N   PRO A   4      22.286  -3.068   2.838  0.00  0.00    +0.000 N 
ATOM     26  CD  PRO A   4      22.872  -1.716   2.934  0.00  0.00    +0.000 C 
ATOM     27  CG  PRO A   4      24.290  -1.999   3.314  0.00  0.00    +0.000 C 
ATOM     28  CB  PRO A   4      24.596  -3.285   2.642  0.00  0.00    +0.000 C 
ATOM     29  CA  PRO A   4      23.302  -4.088   2.718  0.00  0.00    +0.000 C 
BRANCH  29  30
ATOM     30  C   PRO A   4      23.300  -5.069   3.879  0.00  0.00    +0.000 C 
ATOM     31  O   PRO A   4      23.389  -4.689   5.044  0.00  0.00    +0.000 OA
ENDBRANCH  29  30
ENDBRANCH   7  23
BRANCH  12  32
ATOM     32  N   UNK A   3      15.575   0.072   1.025  0.00  0.00    +0.000 N 
ATOM     33  C   UNK A   3      15.546  -1.242   1.174  0.00  0.00    +0.000 A 
ATOM     34  N   UNK A   3      14.574  -1.735   0.429  0.00  0.00    +0.000 NA
ATOM     35  C   UNK A   3      13.965  -0.705  -0.261  0.00  0.00    +0.000 A 
ATOM     36  C   UNK A   3      14.582   0.433   0.140  0.00  0.00    +0.000 A 
BRANCH  35  37
ATOM     37  C   UNK A   3      12.816  -0.930  -1.201  0.00  0.00    +0.000 C 
BRANCH  37  38
ATOM     38  C   UNK A   3      13.216  -1.105  -2.655  0.00  0.00    +0.000 C 
BRANCH  38  39
ATOM     39  C   UNK A   3      13.810   0.162  -3.255  0.00  0.00    +0.000 C 
ATOM     40  O   UNK A   3      15.030   0.248  -3.482  0.00  0.00    +0.000 OA
ATOM     41  N   CYS A   2      12.938   1.113  -3.562  0.00  0.00    +0.000 N 
ATOM     42  H   CYS A   2      11.927   0.948  -3.382  0.00  0.00    +0.000 HD
BRANCH  41  43
ATOM     43  CA  CYS A   2      13.352   2.376  -4.141  0.00  0.00    +0.000 C 
BRANCH  43  44
ATOM     44  C   CYS A   2      12.289   3.423  -3.878  0.00  0.00    +0.000 C 
ATOM     45  O   CYS A   2      11.264   3.134  -3.255  0.00  0.00    +0.000 OA
ATOM     46  N   UNK A   3      12.552   4.644  -4.314  0.00  0.00    +0.000 N 
ATOM     47  H   UNK A   3      13.494   4.851  -4.704  0.00  0.00    +0.000 HD
BRANCH  46  48
ATOM     48  C   UNK A   3      11.560   5.701  -4.262  0.00  0.00    +0.000 C 
BRANCH  48  49
ATOM     49  C   UNK A   3      11.840   6.706  -3.143  0.00  0.00    +0.000 C 
ATOM     50  C   UNK A   3      10.924   7.936  -3.283  0.00  0.00    +0.000 C 
BRANCH  49  51
ATOM     51  C   UNK A   3      11.652   6.020  -1.788  0.00  0.00    +0.000 C 
ATOM     52  C   UNK A   3      11.701   6.959  -0.597  0.00  0.00    +0.000 C 
ENDBRANCH  49  51
ENDBRANCH  48  49
BRANCH  48  53
ATOM     53  C   UNK A   3      11.610   6.403  -5.556  0.00  0.00    +0.000 C 
ATOM     54  O   UNK A   3      12.687   6.625  -6.077  0.00  0.00    +0.000 OA
ENDBRANCH  48  53
ENDBRANCH  46  48
ENDBRANCH  43  44
BRANCH  43  55
ATOM     55  CB  CYS A   2      13.599   2.236  -5.652  0.00  0.00    +0.000 C 
ATOM     56  SG  CYS A   2      12.206   1.580  -6.615  0.00  0.00    +0.000 S 
ENDBRANCH  43  55
ENDBRANCH  41  43
ENDBRANCH  38  39
BRANCH  38  57
ATOM     57  N   UNK A   3      14.153  -2.201  -2.842  0.00  0.00    +0.000 NA
ATOM     58  H   UNK A   1      15.146  -2.073  -2.560  0.00  0.00    +0.000 HD
ENDBRANCH  38  57
ENDBRANCH  37  38
ENDBRANCH  35  37
ENDBRANCH  12  32
BRANCH   4  59
ATOM     59  CB  CYS A   2      19.121  -5.144  -0.942  0.00  0.00    +0.000 C 
ATOM     60  CG2 CYS A   2      18.523  -5.855   0.242  0.00  0.00    +0.000 C 
ATOM     61  CG1 CYS A   2      18.494  -5.712  -2.198  0.00  0.00    +0.000 C 
ENDBRANCH   4  59
BRANCH   1  62
ATOM     62  N   UNK A   1      17.900  -0.593  -4.531  0.00  0.00    +0.000 NA
ATOM     63  H   UNK A   1      16.907  -0.657  -4.230  0.00  0.00    +0.000 HD
ENDBRANCH   1  62
TORSDOF 16
REMARK  Name = ../refined-set-2016/4oct/4oct_pocket.pdb
REMARK  144 active torsions:
REMARK  status: ('A' for Active; 'I' for Inactive)
REMARK    1  A    between atoms: _1  and  _3
REMARK    2  A    between atoms: _3  and  _4
REMARK    3  A    between atoms: _3  and  _6
REMARK    4  A    between atoms: _6  and  _7
REMARK    5  A    between atoms: _7  and  _8
REMARK    6  A    between atoms: _8  and  _9
REMARK    7  A    between atoms: _18  and  _20
REMARK    8  A    between atoms: _20  and  _21
REMARK    9  A    between atoms: _20  and  _23
REMARK   10  A    between atoms: _23  and  _24
REMARK   11  A    between atoms: _24  and  _25
REMARK   12  A    between atoms: _25  and  _26
REMARK   13  A    between atoms: _26  and  _27
REMARK   14  A    between atoms: _31  and  _33
REMARK   15  A    between atoms: _33  and  _34
REMARK   16  A    between atoms: _33  and  _36
REMARK   17  A    between atoms: _36  and  _37
REMARK   18  A    between atoms: _43  and  _45
REMARK   19  A    between atoms: _45  and  _46
REMARK   20  A    between atoms: _45  and  _48
REMARK   21  A    between atoms: _48  and  _49
REMARK   22  A    between atoms: _54  and  _55
REMARK   23  A    between atoms: _57  and  _59
REMARK   24  A    between atoms: _59  and  _60
REMARK   25  A    between atoms: _59  and  _62
REMARK   26  A    between atoms: _65  and  _67
REMARK   27  A    between atoms: _67  and  _68
REMARK   28  A    between atoms: _67  and  _70
REMARK   29  A    between atoms: _70  and  _71
REMARK   30  A    between atoms: _74  and  _76
REMARK   31  A    between atoms: _76  and  _77
REMARK   32  A    between atoms: _76  and  _79
REMARK   33  A    between atoms: _79  and  _80
REMARK   34  A    between atoms: _85  and  _87
REMARK   35  A    between atoms: _87  and  _88
REMARK   36  A    between atoms: _87  and  _90
REMARK   37  A    between atoms: _90  and  _91
REMARK   38  A    between atoms: _94  and  _96
REMARK   39  A    between atoms: _96  and  _97
REMARK   40  A    between atoms: _96  and  _99
REMARK   41  A    between atoms: _99  and  _100
REMARK   42  A    between atoms: _105  and  _106
REMARK   43  A    between atoms: _108  and  _110
REMARK   44  A    between atoms: _110  and  _111
REMARK   45  A    between atoms: _110  and  _113
REMARK   46  A    between atoms: _115  and  _117
REMARK   47  A    between atoms: _117  and  _118
REMARK   48  A    between atoms: _117  and  _120
REMARK   49  A    between atoms: _120  and  _121
REMARK   50  A    between atoms: _124  and  _126
REMARK   51  A    between atoms: _126  and  _127
REMARK   52  A    between atoms: _126  and  _129
REMARK   53  A    between atoms: _132  and  _134
REMARK   54  A    between atoms: _145  and  _148
REMARK   55  A    between atoms: _153  and  _154
REMARK   56  A    between atoms: _161  and  _162
REMARK   57  A    between atoms: _167  and  _169
REMARK   58  A    between atoms: _169  and  _170
REMARK   59  A    between atoms: _169  and  _172
REMARK   60  A    between atoms: _172  and  _173
REMARK   61  A    between atoms: _179  and  _181
REMARK   62  A    between atoms: _181  and  _182
REMARK   63  A    between atoms: _181  and  _184
REMARK   64  A    between atoms: _184  and  _185
REMARK   65  A    between atoms: _188  and  _190
REMARK   66  A    between atoms: _190  and  _191
REMARK   67  A    between atoms: _190  and  _193
REMARK   68  A    between atoms: _193  and  _194
REMARK   69  A    between atoms: _196  and  _198
REMARK   70  A    between atoms: _198  and  _199
REMARK   71  A    between atoms: _198  and  _201
REMARK   72  A    between atoms: _204  and  _206
REMARK   73  A    between atoms: _206  and  _207
REMARK   74  A    between atoms: _206  and  _209
REMARK   75  A    between atoms: _209  and  _210
REMARK   76  A    between atoms: _212  and  _214
REMARK   77  A    between atoms: _214  and  _215
REMARK   78  A    between atoms: _214  and  _217
REMARK   79  A    between atoms: _217  and  _218
REMARK   80  A    between atoms: _224  and  _226
REMARK   81  A    between atoms: _226  and  _227
REMARK   82  A    between atoms: _226  and  _229
REMARK   83  A    between atoms: _229  and  _230
REMARK   84  A    between atoms: _232  and  _234
REMARK   85  A    between atoms: _234  and  _235
REMARK   86  A    between atoms: _238  and  _240
REMARK   87  A    between atoms: _240  and  _241
REMARK   88  A    between atoms: _240  and  _243
REMARK   89  A    between atoms: _243  and  _244
REMARK   90  A    between atoms: _247  and  _249
REMARK   91  A    between atoms: _249  and  _250
REMARK   92  A    between atoms: _249  and  _252
REMARK   93  A    between atoms: _254  and  _256
REMARK   94  A    between atoms: _256  and  _257
REMARK   95  A    between atoms: _256  and  _259
REMARK   96  A    between atoms: _262  and  _264
REMARK   97  A    between atoms: _264  and  _265
REMARK   98  A    between atoms: _264  and  _267
REMARK   99  A    between atoms: _267  and  _268
REMARK  100  A    between atoms: _271  and  _273
REMARK  101  A    between atoms: _273  and  _274
REMARK  102  A    between atoms: _273  and  _276
REMARK  103  A    between atoms: _276  and  _277
REMARK  104  A    between atoms: _280  and  _282
REMARK  105  A    between atoms: _282  and  _283
REMARK  106  A    between atoms: _282  and  _285
REMARK  107  A    between atoms: _285  and  _286
REMARK  108  A    between atoms: _290  and  MN_382
REMARK  109  A    between atoms: _291  and  _293
REMARK  110  A    between atoms: _293  and  _294
REMARK  111  A    between atoms: _293  and  _296
REMARK  112  A    between atoms: _298  and  _300
REMARK  113  A    between atoms: _300  and  _301
REMARK  114  A    between atoms: _300  and  _303
REMARK  115  A    between atoms: _303  and  _304
REMARK  116  A    between atoms: _307  and  _309
REMARK  117  A    between atoms: _309  and  _310
REMARK  118  A    between atoms: _309  and  _312
REMARK  119  A    between atoms: _312  and  _313
REMARK  120  A    between atoms: _316  and  _318
REMARK  121  A    between atoms: _318  and  _319
REMARK  122  A    between atoms: _318  and  _321
REMARK  123  A    between atoms: _321  and  _322
REMARK  124  A    between atoms: _322  and  _323
REMARK  125  A    between atoms: _323  and  _324
REMARK  126  A    between atoms: _333  and  _335
REMARK  127  A    between atoms: _335  and  _336
REMARK  128  A    between atoms: _339  and  _341
REMARK  129  A    between atoms: _341  and  _342
REMARK  130  A    between atoms: _341  and  _344
REMARK  131  A    between atoms: _347  and  _349
REMARK  132  A    between atoms: _349  and  _350
REMARK  133  A    between atoms: _349  and  _352
REMARK  134  A    between atoms: _352  and  _353
REMARK  135  A    between atoms: _356  and  _358
REMARK  136  A    between atoms: _358  and  _359
REMARK  137  A    between atoms: _358  and  _361
REMARK  138  A    between atoms: _361  and  _362
REMARK  139  A    between atoms: _365  and  _367
REMARK  140  A    between atoms: _367  and  _368
REMARK  141  A    between atoms: _367  and  _370
REMARK  142  A    between atoms: _370  and  _371
REMARK  143  A    between atoms: _371  and  _372
REMARK  144  A    between atoms: _372  and  _373
REMARK                            x       y       z     vdW  Elec       q    Type
REMARK                         _______ _______ _______ _____ _____    ______ ____
ROOT
ATOM      1  CB  PHE A   1      22.095  -3.350   8.353  0.00  0.00    +0.051 C 
ENDROOT
BRANCH   1   2
ATOM      2  CG  PHE A   1      22.606  -1.949   8.242  0.00  0.00    -0.020 A 
ATOM      3  CD2 PHE A   1      22.859  -1.184   9.390  0.00  0.00    -0.004 A 
ATOM      4  CE2 PHE A   1      23.313   0.126   9.282  0.00  0.00    -0.000 A 
ATOM      5  CZ  PHE A   1      23.509   0.675   8.024  0.00  0.00    -0.000 A 
ATOM      6  CE1 PHE A   1      23.261  -0.082   6.889  0.00  0.00    -0.000 A 
ATOM      7  CD1 PHE A   1      22.800  -1.365   7.003  0.00  0.00    -0.004 A 
ENDBRANCH   1   2
BRANCH   1   8
ATOM      8  CA  PHE A   1      23.098  -4.329   8.945  0.00  0.00    +0.137 C 
BRANCH   8   9
ATOM      9  N   PHE A   1      24.199  -4.517   8.043  0.00  0.00    -0.239 NA
ATOM     10  H   PHE A   1      24.015  -4.838   7.071  0.00  0.00    +0.142 HD
ENDBRANCH   8   9
BRANCH   8  11
ATOM     11  C   PHE A   1      22.378  -5.605   9.262  0.00  0.00    +0.224 C 
ATOM     12  O   PHE A   1      22.039  -6.390   8.357  0.00  0.00    -0.287 OA
ENDBRANCH   8  11
ENDBRANCH   1   8
TORSDOF 4
REMARK  Name = ../refined-set-2016/4oct/4oct_pocket.pdb
REMARK  144 active torsions:
REMARK  status: ('A' for Active; 'I' for Inactive)
REMARK    1  A    between atoms: _1  and  _3
REMARK    2  A    between atoms: _3  and  _4
REMARK    3  A    between atoms: _3  and  _6
REMARK    4  A    between atoms: _6  and  _7
REMARK    5  A    between atoms: _7  and  _8
REMARK    6  A    between atoms: _8  and  _9
REMARK    7  A    between atoms: _18  and  _20
REMARK    8  A    between atoms: _20  and  _21
REMARK    9  A    between atoms: _20  and  _23
REMARK   10  A    between atoms: _23  and  _24
REMARK   11  A    between atoms: _24  and  _25
REMARK   12  A    between atoms: _25  and  _26
REMARK   13  A    between atoms: _26  and  _27
REMARK   14  A    between atoms: _31  and  _33
REMARK   15  A    between atoms: _33  and  _34
REMARK   16  A    between atoms: _33  and  _36
REMARK   17  A    between atoms: _36  and  _37
REMARK   18  A    between atoms: _43  and  _45
REMARK   19  A    between atoms: _45  and  _46
REMARK   20  A    between atoms: _45  and  _48
REMARK   21  A    between atoms: _48  and  _49
REMARK   22  A    between atoms: _54  and  _55
REMARK   23  A    between atoms: _57  and  _59
REMARK   24  A    between atoms: _59  and  _60
REMARK   25  A    between atoms: _59  and  _62
REMARK   26  A    between atoms: _65  and  _67
REMARK   27  A    between atoms: _67  and  _68
REMARK   28  A    between atoms: _67  and  _70
REMARK   29  A    between atoms: _70  and  _71
REMARK   30  A    between atoms: _74  and  _76
REMARK   31  A    between atoms: _76  and  _77
REMARK   32  A    between atoms: _76  and  _79
REMARK   33  A    between atoms: _79  and  _80
REMARK   34  A    between atoms: _85  and  _87
REMARK   35  A    between atoms: _87  and  _88
REMARK   36  A    between atoms: _87  and  _90
REMARK   37  A    between atoms: _90  and  _91
REMARK   38  A    between atoms: _94  and  _96
REMARK   39  A    between atoms: _96  and  _97
REMARK   40  A    between atoms: _96  and  _99
REMARK   41  A    between atoms: _99  and  _100
REMARK   42  A    between atoms: _105  and  _106
REMARK   43  A    between atoms: _108  and  _110
REMARK   44  A    between atoms: _110  and  _111
REMARK   45  A    between atoms: _110  and  _113
REMARK   46  A    between atoms: _115  and  _117
REMARK   47  A    between atoms: _117  and  _118
REMARK   48  A    between atoms: _117  and  _120
REMARK   49  A    between atoms: _120  and  _121
REMARK   50  A    between atoms: _124  and  _126
REMARK   51  A    between atoms: _126  and  _127
REMARK   52  A    between atoms: _126  and  _129
REMARK   53  A    between atoms: _132  and  _134
REMARK   54  A    between atoms: _145  and  _148
REMARK   55  A    between atoms: _153  and  _154
REMARK   56  A    between atoms: _161  and  _162
REMARK   57  A    between atoms: _167  and  _169
REMARK   58  A    between atoms: _169  and  _170
REMARK   59  A    between atoms: _169  and  _172
REMARK   60  A    between atoms: _172  and  _173
REMARK   61  A    between atoms: _179  and  _181
REMARK   62  A    between atoms: _181  and  _182
REMARK   63  A    between atoms: _181  and  _184
REMARK   64  A    between atoms: _184  and  _185
REMARK   65  A    between atoms: _188  and  _190
REMARK   66  A    between atoms: _190  and  _191
REMARK   67  A    between atoms: _190  and  _193
REMARK   68  A    between atoms: _193  and  _194
REMARK   69  A    between atoms: _196  and  _198
REMARK   70  A    between atoms: _198  and  _199
REMARK   71  A    between atoms: _198  and  _201
REMARK   72  A    between atoms: _204  and  _206
REMARK   73  A    between atoms: _206  and  _207
REMARK   74  A    between atoms: _206  and  _209
REMARK   75  A    between atoms: _209  and  _210
REMARK   76  A    between atoms: _212  and  _214
REMARK   77  A    between atoms: _214  and  _215
REMARK   78  A    between atoms: _214  and  _217
REMARK   79  A    between atoms: _217  and  _218
REMARK   80  A    between atoms: _224  and  _226
REMARK   81  A    between atoms: _226  and  _227
REMARK   82  A    between atoms: _226  and  _229
REMARK   83  A    between atoms: _229  and  _230
REMARK   84  A    between atoms: _232  and  _234
REMARK   85  A    between atoms: _234  and  _235
REMARK   86  A    between atoms: _238  and  _240
REMARK   87  A    between atoms: _240  and  _241
REMARK   88  A    between atoms: _240  and  _243
REMARK   89  A    between atoms: _243  and  _244
REMARK   90  A    between atoms: _247  and  _249
REMARK   91  A    between atoms: _249  and  _250
REMARK   92  A    between atoms: _249  and  _252
REMARK   93  A    between atoms: _254  and  _256
REMARK   94  A    between atoms: _256  and  _257
REMARK   95  A    between atoms: _256  and  _259
REMARK   96  A    between atoms: _262  and  _264
REMARK   97  A    between atoms: _264  and  _265
REMARK   98  A    between atoms: _264  and  _267
REMARK   99  A    between atoms: _267  and  _268
REMARK  100  A    between atoms: _271  and  _273
REMARK  101  A    between atoms: _273  and  _274
REMARK  102  A    between atoms: _273  and  _276
REMARK  103  A    between atoms: _276  and  _277
REMARK  104  A    between atoms: _280  and  _282
REMARK  105  A    between atoms: _282  and  _283
REMARK  106  A    between atoms: _282  and  _285
REMARK  107  A    between atoms: _285  and  _286
REMARK  108  A    between atoms: _290  and  MN_382
REMARK  109  A    between atoms: _291  and  _293
REMARK  110  A    between atoms: _293  and  _294
REMARK  111  A    between atoms: _293  and  _296
REMARK  112  A    between atoms: _298  and  _300
REMARK  113  A    between atoms: _300  and  _301
REMARK  114  A    between atoms: _300  and  _303
REMARK  115  A    between atoms: _303  and  _304
REMARK  116  A    between atoms: _307  and  _309
REMARK  117  A    between atoms: _309  and  _310
REMARK  118  A    between atoms: _309  and  _312
REMARK  119  A    between atoms: _312  and  _313
REMARK  120  A    between atoms: _316  and  _318
REMARK  121  A    between atoms: _318  and  _319
REMARK  122  A    between atoms: _318  and  _321
REMARK  123  A    between atoms: _321  and  _322
REMARK  124  A    between atoms: _322  and  _323
REMARK  125  A    between atoms: _323  and  _324
REMARK  126  A    between atoms: _333  and  _335
REMARK  127  A    between atoms: _335  and  _336
REMARK  128  A    between atoms: _339  and  _341
REMARK  129  A    between atoms: _341  and  _342
REMARK  130  A    between atoms: _341  and  _344
REMARK  131  A    between atoms: _347  and  _349
REMARK  132  A    between atoms: _349  and  _350
REMARK  133  A    between atoms: _349  and  _352
REMARK  134  A    between atoms: _352  and  _353
REMARK  135  A    between atoms: _356  and  _358
REMARK  136  A    between atoms: _358  and  _359
REMARK  137  A    between atoms: _358  and  _361
REMARK  138  A    between atoms: _361  and  _362
REMARK  139  A    between atoms: _365  and  _367
REMARK  140  A    between atoms: _367  and  _368
REMARK  141  A    between atoms: _367  and  _370
REMARK  142  A    between atoms: _370  and  _371
REMARK  143  A    between atoms: _371  and  _372
REMARK  144  A    between atoms: _372  and  _373
REMARK                            x       y       z     vdW  Elec       q    Type
REMARK                         _______ _______ _______ _____ _____    ______ ____
ROOT
ATOM      1  CA  ILE A   1      15.223  -2.124   9.290  0.00  0.00    +0.133 C 
ENDROOT
BRANCH   1   2
ATOM      2  N   ILE A   1      15.001  -3.523   9.614  0.00  0.00    -0.239 NA
ATOM      3  H   ILE A   1      14.513  -4.123   8.919  0.00  0.00    +0.142 HD
ENDBRANCH   1   2
BRANCH   1   4
ATOM      4  C   ILE A   1      13.971  -1.361   9.668  0.00  0.00    +0.224 C 
ATOM      5  O   ILE A   1      12.865  -1.803   9.400  0.00  0.00    -0.287 OA
ENDBRANCH   1   4
BRANCH   1   6
ATOM      6  CB  ILE A   1      15.528  -1.933   7.804  0.00  0.00    +0.023 C 
ATOM      7  CG2 ILE A   1      15.648  -0.445   7.438  0.00  0.00    +0.002 C 
BRANCH   6   8
ATOM      8  CG1 ILE A   1      16.804  -2.676   7.433  0.00  0.00    +0.002 C 
ATOM      9  CD1 ILE A   1      16.736  -3.211   6.021  0.00  0.00    +0.000 C 
ENDBRANCH   6   8
ENDBRANCH   1   6
TORSDOF 4
REMARK  Name = ../refined-set-2016/4oct/4oct_pocket.pdb
REMARK  144 active torsions:
REMARK  status: ('A' for Active; 'I' for Inactive)
REMARK    1  A    between atoms: _1  and  _3
REMARK    2  A    between atoms: _3  and  _4
REMARK    3  A    between atoms: _3  and  _6
REMARK    4  A    between atoms: _6  and  _7
REMARK    5  A    between atoms: _7  and  _8
REMARK    6  A    between atoms: _8  and  _9
REMARK    7  A    between atoms: _18  and  _20
REMARK    8  A    between atoms: _20  and  _21
REMARK    9  A    between atoms: _20  and  _23
REMARK   10  A    between atoms: _23  and  _24
REMARK   11  A    between atoms: _24  and  _25
REMARK   12  A    between atoms: _25  and  _26
REMARK   13  A    between atoms: _26  and  _27
REMARK   14  A    between atoms: _31  and  _33
REMARK   15  A    between atoms: _33  and  _34
REMARK   16  A    between atoms: _33  and  _36
REMARK   17  A    between atoms: _36  and  _37
REMARK   18  A    between atoms: _43  and  _45
REMARK   19  A    between atoms: _45  and  _46
REMARK   20  A    between atoms: _45  and  _48
REMARK   21  A    between atoms: _48  and  _49
REMARK   22  A    between atoms: _54  and  _55
REMARK   23  A    between atoms: _57  and  _59
REMARK   24  A    between atoms: _59  and  _60
REMARK   25  A    between atoms: _59  and  _62
REMARK   26  A    between atoms: _65  and  _67
REMARK   27  A    between atoms: _67  and  _68
REMARK   28  A    between atoms: _67  and  _70
REMARK   29  A    between atoms: _70  and  _71
REMARK   30  A    between atoms: _74  and  _76
REMARK   31  A    between atoms: _76  and  _77
REMARK   32  A    between atoms: _76  and  _79
REMARK   33  A    between atoms: _79  and  _80
REMARK   34  A    between atoms: _85  and  _87
REMARK   35  A    between atoms: _87  and  _88
REMARK   36  A    between atoms: _87  and  _90
REMARK   37  A    between atoms: _90  and  _91
REMARK   38  A    between atoms: _94  and  _96
REMARK   39  A    between atoms: _96  and  _97
REMARK   40  A    between atoms: _96  and  _99
REMARK   41  A    between atoms: _99  and  _100
REMARK   42  A    between atoms: _105  and  _106
REMARK   43  A    between atoms: _108  and  _110
REMARK   44  A    between atoms: _110  and  _111
REMARK   45  A    between atoms: _110  and  _113
REMARK   46  A    between atoms: _115  and  _117
REMARK   47  A    between atoms: _117  and  _118
REMARK   48  A    between atoms: _117  and  _120
REMARK   49  A    between atoms: _120  and  _121
REMARK   50  A    between atoms: _124  and  _126
REMARK   51  A    between atoms: _126  and  _127
REMARK   52  A    between atoms: _126  and  _129
REMARK   53  A    between atoms: _132  and  _134
REMARK   54  A    between atoms: _145  and  _148
REMARK   55  A    between atoms: _153  and  _154
REMARK   56  A    between atoms: _161  and  _162
REMARK   57  A    between atoms: _167  and  _169
REMARK   58  A    between atoms: _169  and  _170
REMARK   59  A    between atoms: _169  and  _172
REMARK   60  A    between atoms: _172  and  _173
REMARK   61  A    between atoms: _179  and  _181
REMARK   62  A    between atoms: _181  and  _182
REMARK   63  A    between atoms: _181  and  _184
REMARK   64  A    between atoms: _184  and  _185
REMARK   65  A    between atoms: _188  and  _190
REMARK   66  A    between atoms: _190  and  _191
REMARK   67  A    between atoms: _190  and  _193
REMARK   68  A    between atoms: _193  and  _194
REMARK   69  A    between atoms: _196  and  _198
REMARK   70  A    between atoms: _198  and  _199
REMARK   71  A    between atoms: _198  and  _201
REMARK   72  A    between atoms: _204  and  _206
REMARK   73  A    between atoms: _206  and  _207
REMARK   74  A    between atoms: _206  and  _209
REMARK   75  A    between atoms: _209  and  _210
REMARK   76  A    between atoms: _212  and  _214
REMARK   77  A    between atoms: _214  and  _215
REMARK   78  A    between atoms: _214  and  _217
REMARK   79  A    between atoms: _217  and  _218
REMARK   80  A    between atoms: _224  and  _226
REMARK   81  A    between atoms: _226  and  _227
REMARK   82  A    between atoms: _226  and  _229
REMARK   83  A    between atoms: _229  and  _230
REMARK   84  A    between atoms: _232  and  _234
REMARK   85  A    between atoms: _234  and  _235
REMARK   86  A    between atoms: _238  and  _240
REMARK   87  A    between atoms: _240  and  _241
REMARK   88  A    between atoms: _240  and  _243
REMARK   89  A    between atoms: _243  and  _244
REMARK   90  A    between atoms: _247  and  _249
REMARK   91  A    between atoms: _249  and  _250
REMARK   92  A    between atoms: _249  and  _252
REMARK   93  A    between atoms: _254  and  _256
REMARK   94  A    between atoms: _256  and  _257
REMARK   95  A    between atoms: _256  and  _259
REMARK   96  A    between atoms: _262  and  _264
REMARK   97  A    between atoms: _264  and  _265
REMARK   98  A    between atoms: _264  and  _267
REMARK   99  A    between atoms: _267  and  _268
REMARK  100  A    between atoms: _271  and  _273
REMARK  101  A    between atoms: _273  and  _274
REMARK  102  A    between atoms: _273  and  _276
REMARK  103  A    between atoms: _276  and  _277
REMARK  104  A    between atoms: _280  and  _282
REMARK  105  A    between atoms: _282  and  _283
REMARK  106  A    between atoms: _282  and  _285
REMARK  107  A    between atoms: _285  and  _286
REMARK  108  A    between atoms: _290  and  MN_382
REMARK  109  A    between atoms: _291  and  _293
REMARK  110  A    between atoms: _293  and  _294
REMARK  111  A    between atoms: _293  and  _296
REMARK  112  A    between atoms: _298  and  _300
REMARK  113  A    between atoms: _300  and  _301
REMARK  114  A    between atoms: _300  and  _303
REMARK  115  A    between atoms: _303  and  _304
REMARK  116  A    between atoms: _307  and  _309
REMARK  117  A    between atoms: _309  and  _310
REMARK  118  A    between atoms: _309  and  _312
REMARK  119  A    between atoms: _312  and  _313
REMARK  120  A    between atoms: _316  and  _318
REMARK  121  A    between atoms: _318  and  _319
REMARK  122  A    between atoms: _318  and  _321
REMARK  123  A    between atoms: _321  and  _322
REMARK  124  A    between atoms: _322  and  _323
REMARK  125  A    between atoms: _323  and  _324
REMARK  126  A    between atoms: _333  and  _335
REMARK  127  A    between atoms: _335  and  _336
REMARK  128  A    between atoms: _339  and  _341
REMARK  129  A    between atoms: _341  and  _342
REMARK  130  A    between atoms: _341  and  _344
REMARK  131  A    between atoms: _347  and  _349
REMARK  132  A    between atoms: _349  and  _350
REMARK  133  A    between atoms: _349  and  _352
REMARK  134  A    between atoms: _352  and  _353
REMARK  135  A    between atoms: _356  and  _358
REMARK  136  A    between atoms: _358  and  _359
REMARK  137  A    between atoms: _358  and  _361
REMARK  138  A    between atoms: _361  and  _362
REMARK  139  A    between atoms: _365  and  _367
REMARK  140  A    between atoms: _367  and  _368
REMARK  141  A    between atoms: _367  and  _370
REMARK  142  A    between atoms: _370  and  _371
REMARK  143  A    between atoms: _371  and  _372
REMARK  144  A    between atoms: _372  and  _373
REMARK                            x       y       z     vdW  Elec       q    Type
REMARK                         _______ _______ _______ _____ _____    ______ ____
ROOT
ATOM      1  C   VAL A   2      10.117   8.033   9.443  0.00  0.00    +0.241 C 
ATOM      2  O   VAL A   2      11.160   8.660   9.187  0.00  0.00    -0.273 OA
ATOM      3  N   SER A   3       8.919   8.437   9.038  0.00  0.00    -0.295 N 
ATOM      4  H   SER A   3       8.064   8.023   9.461  0.00  0.00    +0.150 HD
ENDROOT
BRANCH   1   5
ATOM      5  CA  VAL A   2      10.151   6.775  10.337  0.00  0.00    +0.148 C 
BRANCH   5   7
ATOM      6  C   SER A   1      10.986   4.576   9.639  0.00  0.00    +0.241 C 
ATOM      7  N   VAL A   2      11.209   5.861   9.898  0.00  0.00    -0.297 N 
ATOM      8  H   VAL A   2      12.174   6.233   9.784  0.00  0.00    +0.150 HD
ATOM      9  O   SER A   1       9.917   4.035   9.813  0.00  0.00    -0.274 OA
BRANCH   6  10
ATOM     10  CA  SER A   1      12.152   3.788   9.118  0.00  0.00    +0.174 C 
BRANCH  10  11
ATOM     11  N   SER A   1      12.132   2.455   9.717  0.00  0.00    -0.236 NA
ATOM     12  H   SER A   1      11.247   1.909   9.708  0.00  0.00    +0.142 HD
ENDBRANCH  10  11
BRANCH  10  13
ATOM     13  CB  SER A   1      12.100   3.699   7.592  0.00  0.00    +0.163 C 
BRANCH  13  14
ATOM     14  OG  SER A   1      11.070   2.804   7.141  0.00  0.00    -0.380 OA
ATOM     15  H   SER A   1      11.242   1.897   7.499  0.00  0.00    +0.211 HD
ENDBRANCH  13  14
ENDBRANCH  10  13
ENDBRANCH   6  10
ENDBRANCH   5   7
BRANCH   5  16
ATOM     16  CB  VAL A   2      10.342   7.235  11.803  0.00  0.00    +0.027 C 
ATOM     17  CG2 VAL A   2      10.843   6.088  12.676  0.00  0.00    +0.002 C 
ATOM     18  CG1 VAL A   2       9.037   7.782  12.355  0.00  0.00    +0.002 C 
ENDBRANCH   5  16
ENDBRANCH   1   5
BRANCH   3  19
ATOM     19  CA  SER A   3       8.794   9.473   7.988  0.00  0.00    +0.178 C 
BRANCH  19  20
ATOM     20  C   SER A   3       8.351  10.818   8.489  0.00  0.00    +0.243 C 
ATOM     21  O   SER A   3       7.487  10.899   9.345  0.00  0.00    -0.273 OA
ATOM     22  N   PHE A   4       8.868  11.879   7.881  0.00  0.00    -0.298 N 
ATOM     23  H   PHE A   4       9.537  11.748   7.095  0.00  0.00    +0.150 HD
BRANCH  22  24
ATOM     24  CA  PHE A   4       8.509  13.219   8.302  0.00  0.00    +0.141 C 
BRANCH  24  25
ATOM     25  C   PHE A   4       8.283  14.181   7.142  0.00  0.00    +0.227 C 
ATOM     26  O   PHE A   4       8.564  13.858   5.973  0.00  0.00    -0.286 OA
ENDBRANCH  24  25
BRANCH  24  27
ATOM     27  CB  PHE A   4       9.578  13.733   9.283  0.00  0.00    +0.054 C 
BRANCH  27  28
ATOM     28  CG  PHE A   4       9.703  12.878  10.525  0.00  0.00    -0.020 A 
ATOM     29  CD2 PHE A   4       8.826  13.029  11.567  0.00  0.00    -0.004 A 
ATOM     30  CE2 PHE A   4       8.910  12.229  12.707  0.00  0.00    -0.000 A 
ATOM     31  CZ  PHE A   4       9.855  11.240  12.775  0.00  0.00    -0.000 A 
ATOM     32  CE1 PHE A   4      10.740  11.065  11.732  0.00  0.00    -0.000 A 
ATOM     33  CD1 PHE A   4      10.659  11.877  10.601  0.00  0.00    -0.004 A 
ENDBRANCH  27  28
ENDBRANCH  24  27
ENDBRANCH  22  24
ENDBRANCH  19  20
BRANCH  19  34
ATOM     34  CB  SER A   3       7.812   9.010   6.910  0.00  0.00    +0.166 C 
BRANCH  34  35
ATOM     35  OG  SER A   3       8.363   7.936   6.197  0.00  0.00    -0.380 OA
ATOM     36  H   SER A   3       7.724   7.641   5.501  0.00  0.00    +0.211 HD
ENDBRANCH  34  35
ENDBRANCH  19  34
ENDBRANCH   3  19
TORSDOF 15
REMARK  Name = ../refined-set-2016/4oct/4oct_pocket.pdb
REMARK  144 active torsions:
REMARK  status: ('A' for Active; 'I' for Inactive)
REMARK    1  A    between atoms: _1  and  _3
REMARK    2  A    between atoms: _3  and  _4
REMARK    3  A    between atoms: _3  and  _6
REMARK    4  A    between atoms: _6  and  _7
REMARK    5  A    between atoms: _7  and  _8
REMARK    6  A    between atoms: _8  and  _9
REMARK    7  A    between atoms: _18  and  _20
REMARK    8  A    between atoms: _20  and  _21
REMARK    9  A    between atoms: _20  and  _23
REMARK   10  A    between atoms: _23  and  _24
REMARK   11  A    between atoms: _24  and  _25
REMARK   12  A    between atoms: _25  and  _26
REMARK   13  A    between atoms: _26  and  _27
REMARK   14  A    between atoms: _31  and  _33
REMARK   15  A    between atoms: _33  and  _34
REMARK   16  A    between atoms: _33  and  _36
REMARK   17  A    between atoms: _36  and  _37
REMARK   18  A    between atoms: _43  and  _45
REMARK   19  A    between atoms: _45  and  _46
REMARK   20  A    between atoms: _45  and  _48
REMARK   21  A    between atoms: _48  and  _49
REMARK   22  A    between atoms: _54  and  _55
REMARK   23  A    between atoms: _57  and  _59
REMARK   24  A    between atoms: _59  and  _60
REMARK   25  A    between atoms: _59  and  _62
REMARK   26  A    between atoms: _65  and  _67
REMARK   27  A    between atoms: _67  and  _68
REMARK   28  A    between atoms: _67  and  _70
REMARK   29  A    between atoms: _70  and  _71
REMARK   30  A    between atoms: _74  and  _76
REMARK   31  A    between atoms: _76  and  _77
REMARK   32  A    between atoms: _76  and  _79
REMARK   33  A    between atoms: _79  and  _80
REMARK   34  A    between atoms: _85  and  _87
REMARK   35  A    between atoms: _87  and  _88
REMARK   36  A    between atoms: _87  and  _90
REMARK   37  A    between atoms: _90  and  _91
REMARK   38  A    between atoms: _94  and  _96
REMARK   39  A    between atoms: _96  and  _97
REMARK   40  A    between atoms: _96  and  _99
REMARK   41  A    between atoms: _99  and  _100
REMARK   42  A    between atoms: _105  and  _106
REMARK   43  A    between atoms: _108  and  _110
REMARK   44  A    between atoms: _110  and  _111
REMARK   45  A    between atoms: _110  and  _113
REMARK   46  A    between atoms: _115  and  _117
REMARK   47  A    between atoms: _117  and  _118
REMARK   48  A    between atoms: _117  and  _120
REMARK   49  A    between atoms: _120  and  _121
REMARK   50  A    between atoms: _124  and  _126
REMARK   51  A    between atoms: _126  and  _127
REMARK   52  A    between atoms: _126  and  _129
REMARK   53  A    between atoms: _132  and  _134
REMARK   54  A    between atoms: _145  and  _148
REMARK   55  A    between atoms: _153  and  _154
REMARK   56  A    between atoms: _161  and  _162
REMARK   57  A    between atoms: _167  and  _169
REMARK   58  A    between atoms: _169  and  _170
REMARK   59  A    between atoms: _169  and  _172
REMARK   60  A    between atoms: _172  and  _173
REMARK   61  A    between atoms: _179  and  _181
REMARK   62  A    between atoms: _181  and  _182
REMARK   63  A    between atoms: _181  and  _184
REMARK   64  A    between atoms: _184  and  _185
REMARK   65  A    between atoms: _188  and  _190
REMARK   66  A    between atoms: _190  and  _191
REMARK   67  A    between atoms: _190  and  _193
REMARK   68  A    between atoms: _193  and  _194
REMARK   69  A    between atoms: _196  and  _198
REMARK   70  A    between atoms: _198  and  _199
REMARK   71  A    between atoms: _198  and  _201
REMARK   72  A    between atoms: _204  and  _206
REMARK   73  A    between atoms: _206  and  _207
REMARK   74  A    between atoms: _206  and  _209
REMARK   75  A    between atoms: _209  and  _210
REMARK   76  A    between atoms: _212  and  _214
REMARK   77  A    between atoms: _214  and  _215
REMARK   78  A    between atoms: _214  and  _217
REMARK   79  A    between atoms: _217  and  _218
REMARK   80  A    between atoms: _224  and  _226
REMARK   81  A    between atoms: _226  and  _227
REMARK   82  A    between atoms: _226  and  _229
REMARK   83  A    between atoms: _229  and  _230
REMARK   84  A    between atoms: _232  and  _234
REMARK   85  A    between atoms: _234  and  _235
REMARK   86  A    between atoms: _238  and  _240
REMARK   87  A    between atoms: _240  and  _241
REMARK   88  A    between atoms: _240  and  _243
REMARK   89  A    between atoms: _243  and  _244
REMARK   90  A    between atoms: _247  and  _249
REMARK   91  A    between atoms: _249  and  _250
REMARK   92  A    between atoms: _249  and  _252
REMARK   93  A    between atoms: _254  and  _256
REMARK   94  A    between atoms: _256  and  _257
REMARK   95  A    between atoms: _256  and  _259
REMARK   96  A    between atoms: _262  and  _264
REMARK   97  A    between atoms: _264  and  _265
REMARK   98  A    between atoms: _264  and  _267
REMARK   99  A    between atoms: _267  and  _268
REMARK  100  A    between atoms: _271  and  _273
REMARK  101  A    between atoms: _273  and  _274
REMARK  102  A    between atoms: _273  and  _276
REMARK  103  A    between atoms: _276  and  _277
REMARK  104  A    between atoms: _280  and  _282
REMARK  105  A    between atoms: _282  and  _283
REMARK  106  A    between atoms: _282  and  _285
REMARK  107  A    between atoms: _285  and  _286
REMARK  108  A    between atoms: _290  and  MN_382
REMARK  109  A    between atoms: _291  and  _293
REMARK  110  A    between atoms: _293  and  _294
REMARK  111  A    between atoms: _293  and  _296
REMARK  112  A    between atoms: _298  and  _300
REMARK  113  A    between atoms: _300  and  _301
REMARK  114  A    between atoms: _300  and  _303
REMARK  115  A    between atoms: _303  and  _304
REMARK  116  A    between atoms: _307  and  _309
REMARK  117  A    between atoms: _309  and  _310
REMARK  118  A    between atoms: _309  and  _312
REMARK  119  A    between atoms: _312  and  _313
REMARK  120  A    between atoms: _316  and  _318
REMARK  121  A    between atoms: _318  and  _319
REMARK  122  A    between atoms: _318  and  _321
REMARK  123  A    between atoms: _321  and  _322
REMARK  124  A    between atoms: _322  and  _323
REMARK  125  A    between atoms: _323  and  _324
REMARK  126  A    between atoms: _333  and  _335
REMARK  127  A    between atoms: _335  and  _336
REMARK  128  A    between atoms: _339  and  _341
REMARK  129  A    between atoms: _341  and  _342
REMARK  130  A    between atoms: _341  and  _344
REMARK  131  A    between atoms: _347  and  _349
REMARK  132  A    between atoms: _349  and  _350
REMARK  133  A    between atoms: _349  and  _352
REMARK  134  A    between atoms: _352  and  _353
REMARK  135  A    between atoms: _356  and  _358
REMARK  136  A    between atoms: _358  and  _359
REMARK  137  A    between atoms: _358  and  _361
REMARK  138  A    between atoms: _361  and  _362
REMARK  139  A    between atoms: _365  and  _367
REMARK  140  A    between atoms: _367  and  _368
REMARK  141  A    between atoms: _367  and  _370
REMARK  142  A    between atoms: _370  and  _371
REMARK  143  A    between atoms: _371  and  _372
REMARK  144  A    between atoms: _372  and  _373
REMARK                            x       y       z     vdW  Elec       q    Type
REMARK                         _______ _______ _______ _____ _____    ______ ____
ROOT
ATOM      1  C   ALA A   2       6.933   5.270  -1.289  0.00  0.00    +0.241 C 
ATOM      2  N   LEU A   3       7.027   4.033  -0.804  0.00  0.00    -0.297 N 
ATOM      3  H   LEU A   3       6.217   3.643  -0.281  0.00  0.00    +0.150 HD
ATOM      4  O   ALA A   2       7.859   5.862  -1.842  0.00  0.00    -0.273 OA
ENDROOT
BRANCH   1   5
ATOM      5  CA  ALA A   2       5.570   5.933  -1.158  0.00  0.00    +0.149 C 
ATOM      6  CB  ALA A   2       4.745   5.718  -2.433  0.00  0.00    +0.031 C 
BRANCH   5   9
ATOM      7  C   SER A   1       4.837   8.029  -0.190  0.00  0.00    +0.241 C 
ATOM      8  O   SER A   1       3.851   7.520   0.332  0.00  0.00    -0.274 OA
ATOM      9  N   ALA A   2       5.727   7.346  -0.901  0.00  0.00    -0.297 N 
ATOM     10  H   ALA A   2       6.558   7.841  -1.283  0.00  0.00    +0.150 HD
BRANCH   7  11
ATOM     11  CA  SER A   1       5.101   9.486  -0.038  0.00  0.00    +0.174 C 
BRANCH  11  12
ATOM     12  N   SER A   1       4.462   9.940   1.154  0.00  0.00    -0.236 NA
ATOM     13  H   SER A   1       4.191   9.240   1.874  0.00  0.00    +0.142 HD
ENDBRANCH  11  12
BRANCH  11  14
ATOM     14  CB  SER A   1       6.607   9.720   0.024  0.00  0.00    +0.163 C 
BRANCH  14  15
ATOM     15  OG  SER A   1       7.213   9.186  -1.165  0.00  0.00    -0.380 OA
ATOM     16  H   SER A   1       6.836   9.642  -1.959  0.00  0.00    +0.211 HD
ENDBRANCH  14  15
ENDBRANCH  11  14
ENDBRANCH   7  11
ENDBRANCH   5   9
ENDBRANCH   1   5
BRANCH   2  17
ATOM     17  CA  LEU A   3       8.203   3.207  -0.970  0.00  0.00    +0.149 C 
BRANCH  17  18
ATOM     18  C   LEU A   3       7.866   2.052  -1.901  0.00  0.00    +0.241 C 
ATOM     19  O   LEU A   3       6.972   1.290  -1.609  0.00  0.00    -0.273 OA
ATOM     20  N   CYS A   4       8.607   1.912  -2.998  0.00  0.00    -0.297 N 
ATOM     21  H   CYS A   4       9.410   2.556  -3.142  0.00  0.00    +0.150 HD
BRANCH  20  22
ATOM     22  CA  CYS A   4       8.336   0.881  -4.017  0.00  0.00    +0.149 C 
BRANCH  22  23
ATOM     23  C   CYS A   4       9.244  -0.327  -3.803  0.00  0.00    +0.228 C 
ATOM     24  O   CYS A   4      10.325  -0.182  -3.261  0.00  0.00    -0.286 OA
ENDBRANCH  22  23
BRANCH  22  25
ATOM     25  CB  CYS A   4       8.591   1.425  -5.414  0.00  0.00    +0.096 C 
ATOM     26  SG  CYS A   4       7.479   2.737  -5.967  0.00  0.00    -0.080 S 
ENDBRANCH  22  25
ENDBRANCH  20  22
ENDBRANCH  17  18
BRANCH  17  27
ATOM     27  CB  LEU A   3       8.636   2.659   0.398  0.00  0.00    +0.029 C 
BRANCH  27  28
ATOM     28  CG  LEU A   3       9.948   1.871   0.525  0.00  0.00    +0.002 C 
ATOM     29  CD2 LEU A   3      10.079   1.280   1.926  0.00  0.00    +0.000 C 
ATOM     30  CD1 LEU A   3      11.154   2.748   0.218  0.00  0.00    +0.000 C 
ENDBRANCH  27  28
ENDBRANCH  17  27
ENDBRANCH   2  17
TORSDOF 13
REMARK  Name = ../refined-set-2016/4oct/4oct_pocket.pdb
REMARK  144 active torsions:
REMARK  status: ('A' for Active; 'I' for Inactive)
REMARK    1  A    between atoms: _1  and  _3
REMARK    2  A    between atoms: _3  and  _4
REMARK    3  A    between atoms: _3  and  _6
REMARK    4  A    between atoms: _6  and  _7
REMARK    5  A    between atoms: _7  and  _8
REMARK    6  A    between atoms: _8  and  _9
REMARK    7  A    between atoms: _18  and  _20
REMARK    8  A    between atoms: _20  and  _21
REMARK    9  A    between atoms: _20  and  _23
REMARK   10  A    between atoms: _23  and  _24
REMARK   11  A    between atoms: _24  and  _25
REMARK   12  A    between atoms: _25  and  _26
REMARK   13  A    between atoms: _26  and  _27
REMARK   14  A    between atoms: _31  and  _33
REMARK   15  A    between atoms: _33  and  _34
REMARK   16  A    between atoms: _33  and  _36
REMARK   17  A    between atoms: _36  and  _37
REMARK   18  A    between atoms: _43  and  _45
REMARK   19  A    between atoms: _45  and  _46
REMARK   20  A    between atoms: _45  and  _48
REMARK   21  A    between atoms: _48  and  _49
REMARK   22  A    between atoms: _54  and  _55
REMARK   23  A    between atoms: _57  and  _59
REMARK   24  A    between atoms: _59  and  _60
REMARK   25  A    between atoms: _59  and  _62
REMARK   26  A    between atoms: _65  and  _67
REMARK   27  A    between atoms: _67  and  _68
REMARK   28  A    between atoms: _67  and  _70
REMARK   29  A    between atoms: _70  and  _71
REMARK   30  A    between atoms: _74  and  _76
REMARK   31  A    between atoms: _76  and  _77
REMARK   32  A    between atoms: _76  and  _79
REMARK   33  A    between atoms: _79  and  _80
REMARK   34  A    between atoms: _85  and  _87
REMARK   35  A    between atoms: _87  and  _88
REMARK   36  A    between atoms: _87  and  _90
REMARK   37  A    between atoms: _90  and  _91
REMARK   38  A    between atoms: _94  and  _96
REMARK   39  A    between atoms: _96  and  _97
REMARK   40  A    between atoms: _96  and  _99
REMARK   41  A    between atoms: _99  and  _100
REMARK   42  A    between atoms: _105  and  _106
REMARK   43  A    between atoms: _108  and  _110
REMARK   44  A    between atoms: _110  and  _111
REMARK   45  A    between atoms: _110  and  _113
REMARK   46  A    between atoms: _115  and  _117
REMARK   47  A    between atoms: _117  and  _118
REMARK   48  A    between atoms: _117  and  _120
REMARK   49  A    between atoms: _120  and  _121
REMARK   50  A    between atoms: _124  and  _126
REMARK   51  A    between atoms: _126  and  _127
REMARK   52  A    between atoms: _126  and  _129
REMARK   53  A    between atoms: _132  and  _134
REMARK   54  A    between atoms: _145  and  _148
REMARK   55  A    between atoms: _153  and  _154
REMARK   56  A    between atoms: _161  and  _162
REMARK   57  A    between atoms: _167  and  _169
REMARK   58  A    between atoms: _169  and  _170
REMARK   59  A    between atoms: _169  and  _172
REMARK   60  A    between atoms: _172  and  _173
REMARK   61  A    between atoms: _179  and  _181
REMARK   62  A    between atoms: _181  and  _182
REMARK   63  A    between atoms: _181  and  _184
REMARK   64  A    between atoms: _184  and  _185
REMARK   65  A    between atoms: _188  and  _190
REMARK   66  A    between atoms: _190  and  _191
REMARK   67  A    between atoms: _190  and  _193
REMARK   68  A    between atoms: _193  and  _194
REMARK   69  A    between atoms: _196  and  _198
REMARK   70  A    between atoms: _198  and  _199
REMARK   71  A    between atoms: _198  and  _201
REMARK   72  A    between atoms: _204  and  _206
REMARK   73  A    between atoms: _206  and  _207
REMARK   74  A    between atoms: _206  and  _209
REMARK   75  A    between atoms: _209  and  _210
REMARK   76  A    between atoms: _212  and  _214
REMARK   77  A    between atoms: _214  and  _215
REMARK   78  A    between atoms: _214  and  _217
REMARK   79  A    between atoms: _217  and  _218
REMARK   80  A    between atoms: _224  and  _226
REMARK   81  A    between atoms: _226  and  _227
REMARK   82  A    between atoms: _226  and  _229
REMARK   83  A    between atoms: _229  and  _230
REMARK   84  A    between atoms: _232  and  _234
REMARK   85  A    between atoms: _234  and  _235
REMARK   86  A    between atoms: _238  and  _240
REMARK   87  A    between atoms: _240  and  _241
REMARK   88  A    between atoms: _240  and  _243
REMARK   89  A    between atoms: _243  and  _244
REMARK   90  A    between atoms: _247  and  _249
REMARK   91  A    between atoms: _249  and  _250
REMARK   92  A    between atoms: _249  and  _252
REMARK   93  A    between atoms: _254  and  _256
REMARK   94  A    between atoms: _256  and  _257
REMARK   95  A    between atoms: _256  and  _259
REMARK   96  A    between atoms: _262  and  _264
REMARK   97  A    between atoms: _264  and  _265
REMARK   98  A    between atoms: _264  and  _267
REMARK   99  A    between atoms: _267  and  _268
REMARK  100  A    between atoms: _271  and  _273
REMARK  101  A    between atoms: _273  and  _274
REMARK  102  A    between atoms: _273  and  _276
REMARK  103  A    between atoms: _276  and  _277
REMARK  104  A    between atoms: _280  and  _282
REMARK  105  A    between atoms: _282  and  _283
REMARK  106  A    between atoms: _282  and  _285
REMARK  107  A    between atoms: _285  and  _286
REMARK  108  A    between atoms: _290  and  MN_382
REMARK  109  A    between atoms: _291  and  _293
REMARK  110  A    between atoms: _293  and  _294
REMARK  111  A    between atoms: _293  and  _296
REMARK  112  A    between atoms: _298  and  _300
REMARK  113  A    between atoms: _300  and  _301
REMARK  114  A    between atoms: _300  and  _303
REMARK  115  A    between atoms: _303  and  _304
REMARK  116  A    between atoms: _307  and  _309
REMARK  117  A    between atoms: _309  and  _310
REMARK  118  A    between atoms: _309  and  _312
REMARK  119  A    between atoms: _312  and  _313
REMARK  120  A    between atoms: _316  and  _318
REMARK  121  A    between atoms: _318  and  _319
REMARK  122  A    between atoms: _318  and  _321
REMARK  123  A    between atoms: _321  and  _322
REMARK  124  A    between atoms: _322  and  _323
REMARK  125  A    between atoms: _323  and  _324
REMARK  126  A    between atoms: _333  and  _335
REMARK  127  A    between atoms: _335  and  _336
REMARK  128  A    between atoms: _339  and  _341
REMARK  129  A    between atoms: _341  and  _342
REMARK  130  A    between atoms: _341  and  _344
REMARK  131  A    between atoms: _347  and  _349
REMARK  132  A    between atoms: _349  and  _350
REMARK  133  A    between atoms: _349  and  _352
REMARK  134  A    between atoms: _352  and  _353
REMARK  135  A    between atoms: _356  and  _358
REMARK  136  A    between atoms: _358  and  _359
REMARK  137  A    between atoms: _358  and  _361
REMARK  138  A    between atoms: _361  and  _362
REMARK  139  A    between atoms: _365  and  _367
REMARK  140  A    between atoms: _367  and  _368
REMARK  141  A    between atoms: _367  and  _370
REMARK  142  A    between atoms: _370  and  _371
REMARK  143  A    between atoms: _371  and  _372
REMARK  144  A    between atoms: _372  and  _373
REMARK                            x       y       z     vdW  Elec       q    Type
REMARK                         _______ _______ _______ _____ _____    ______ ____
ROOT
ATOM      1  CA  VAL A   1       4.463   6.022   3.823  0.00  0.00    +0.133 C 
ENDROOT
BRANCH   1   2
ATOM      2  CB  VAL A   1       6.005   5.933   3.657  0.00  0.00    +0.023 C 
ATOM      3  CG2 VAL A   1       6.460   4.495   3.695  0.00  0.00    +0.002 C 
ATOM      4  CG1 VAL A   1       6.485   6.611   2.376  0.00  0.00    +0.002 C 
ENDBRANCH   1   2
BRANCH   1   5
ATOM      5  N   VAL A   1       3.721   5.697   2.586  0.00  0.00    -0.239 NA
ATOM      6  H   VAL A   1       3.757   6.365   1.790  0.00  0.00    +0.142 HD
ENDBRANCH   1   5
BRANCH   1   7
ATOM      7  C   VAL A   1       4.075   7.414   4.321  0.00  0.00    +0.224 C 
ATOM      8  O   VAL A   1       4.574   8.430   3.834  0.00  0.00    -0.287 OA
ENDBRANCH   1   7
TORSDOF 3
REMARK  Name = ../refined-set-2016/4oct/4oct_pocket.pdb
REMARK  144 active torsions:
REMARK  status: ('A' for Active; 'I' for Inactive)
REMARK    1  A    between atoms: _1  and  _3
REMARK    2  A    between atoms: _3  and  _4
REMARK    3  A    between atoms: _3  and  _6
REMARK    4  A    between atoms: _6  and  _7
REMARK    5  A    between atoms: _7  and  _8
REMARK    6  A    between atoms: _8  and  _9
REMARK    7  A    between atoms: _18  and  _20
REMARK    8  A    between atoms: _20  and  _21
REMARK    9  A    between atoms: _20  and  _23
REMARK   10  A    between atoms: _23  and  _24
REMARK   11  A    between atoms: _24  and  _25
REMARK   12  A    between atoms: _25  and  _26
REMARK   13  A    between atoms: _26  and  _27
REMARK   14  A    between atoms: _31  and  _33
REMARK   15  A    between atoms: _33  and  _34
REMARK   16  A    between atoms: _33  and  _36
REMARK   17  A    between atoms: _36  and  _37
REMARK   18  A    between atoms: _43  and  _45
REMARK   19  A    between atoms: _45  and  _46
REMARK   20  A    between atoms: _45  and  _48
REMARK   21  A    between atoms: _48  and  _49
REMARK   22  A    between atoms: _54  and  _55
REMARK   23  A    between atoms: _57  and  _59
REMARK   24  A    between atoms: _59  and  _60
REMARK   25  A    between atoms: _59  and  _62
REMARK   26  A    between atoms: _65  and  _67
REMARK   27  A    between atoms: _67  and  _68
REMARK   28  A    between atoms: _67  and  _70
REMARK   29  A    between atoms: _70  and  _71
REMARK   30  A    between atoms: _74  and  _76
REMARK   31  A    between atoms: _76  and  _77
REMARK   32  A    between atoms: _76  and  _79
REMARK   33  A    between atoms: _79  and  _80
REMARK   34  A    between atoms: _85  and  _87
REMARK   35  A    between atoms: _87  and  _88
REMARK   36  A    between atoms: _87  and  _90
REMARK   37  A    between atoms: _90  and  _91
REMARK   38  A    between atoms: _94  and  _96
REMARK   39  A    between atoms: _96  and  _97
REMARK   40  A    between atoms: _96  and  _99
REMARK   41  A    between atoms: _99  and  _100
REMARK   42  A    between atoms: _105  and  _106
REMARK   43  A    between atoms: _108  and  _110
REMARK   44  A    between atoms: _110  and  _111
REMARK   45  A    between atoms: _110  and  _113
REMARK   46  A    between atoms: _115  and  _117
REMARK   47  A    between atoms: _117  and  _118
REMARK   48  A    between atoms: _117  and  _120
REMARK   49  A    between atoms: _120  and  _121
REMARK   50  A    between atoms: _124  and  _126
REMARK   51  A    between atoms: _126  and  _127
REMARK   52  A    between atoms: _126  and  _129
REMARK   53  A    between atoms: _132  and  _134
REMARK   54  A    between atoms: _145  and  _148
REMARK   55  A    between atoms: _153  and  _154
REMARK   56  A    between atoms: _161  and  _162
REMARK   57  A    between atoms: _167  and  _169
REMARK   58  A    between atoms: _169  and  _170
REMARK   59  A    between atoms: _169  and  _172
REMARK   60  A    between atoms: _172  and  _173
REMARK   61  A    between atoms: _179  and  _181
REMARK   62  A    between atoms: _181  and  _182
REMARK   63  A    between atoms: _181  and  _184
REMARK   64  A    between atoms: _184  and  _185
REMARK   65  A    between atoms: _188  and  _190
REMARK   66  A    between atoms: _190  and  _191
REMARK   67  A    between atoms: _190  and  _193
REMARK   68  A    between atoms: _193  and  _194
REMARK   69  A    between atoms: _196  and  _198
REMARK   70  A    between atoms: _198  and  _199
REMARK   71  A    between atoms: _198  and  _201
REMARK   72  A    between atoms: _204  and  _206
REMARK   73  A    between atoms: _206  and  _207
REMARK   74  A    between atoms: _206  and  _209
REMARK   75  A    between atoms: _209  and  _210
REMARK   76  A    between atoms: _212  and  _214
REMARK   77  A    between atoms: _214  and  _215
REMARK   78  A    between atoms: _214  and  _217
REMARK   79  A    between atoms: _217  and  _218
REMARK   80  A    between atoms: _224  and  _226
REMARK   81  A    between atoms: _226  and  _227
REMARK   82  A    between atoms: _226  and  _229
REMARK   83  A    between atoms: _229  and  _230
REMARK   84  A    between atoms: _232  and  _234
REMARK   85  A    between atoms: _234  and  _235
REMARK   86  A    between atoms: _238  and  _240
REMARK   87  A    between atoms: _240  and  _241
REMARK   88  A    between atoms: _240  and  _243
REMARK   89  A    between atoms: _243  and  _244
REMARK   90  A    between atoms: _247  and  _249
REMARK   91  A    between atoms: _249  and  _250
REMARK   92  A    between atoms: _249  and  _252
REMARK   93  A    between atoms: _254  and  _256
REMARK   94  A    between atoms: _256  and  _257
REMARK   95  A    between atoms: _256  and  _259
REMARK   96  A    between atoms: _262  and  _264
REMARK   97  A    between atoms: _264  and  _265
REMARK   98  A    between atoms: _264  and  _267
REMARK   99  A    between atoms: _267  and  _268
REMARK  100  A    between atoms: _271  and  _273
REMARK  101  A    between atoms: _273  and  _274
REMARK  102  A    between atoms: _273  and  _276
REMARK  103  A    between atoms: _276  and  _277
REMARK  104  A    between atoms: _280  and  _282
REMARK  105  A    between atoms: _282  and  _283
REMARK  106  A    between atoms: _282  and  _285
REMARK  107  A    between atoms: _285  and  _286
REMARK  108  A    between atoms: _290  and  MN_382
REMARK  109  A    between atoms: _291  and  _293
REMARK  110  A    between atoms: _293  and  _294
REMARK  111  A    between atoms: _293  and  _296
REMARK  112  A    between atoms: _298  and  _300
REMARK  113  A    between atoms: _300  and  _301
REMARK  114  A    between atoms: _300  and  _303
REMARK  115  A    between atoms: _303  and  _304
REMARK  116  A    between atoms: _307  and  _309
REMARK  117  A    between atoms: _309  and  _310
REMARK  118  A    between atoms: _309  and  _312
REMARK  119  A    between atoms: _312  and  _313
REMARK  120  A    between atoms: _316  and  _318
REMARK  121  A    between atoms: _318  and  _319
REMARK  122  A    between atoms: _318  and  _321
REMARK  123  A    between atoms: _321  and  _322
REMARK  124  A    between atoms: _322  and  _323
REMARK  125  A    between atoms: _323  and  _324
REMARK  126  A    between atoms: _333  and  _335
REMARK  127  A    between atoms: _335  and  _336
REMARK  128  A    between atoms: _339  and  _341
REMARK  129  A    between atoms: _341  and  _342
REMARK  130  A    between atoms: _341  and  _344
REMARK  131  A    between atoms: _347  and  _349
REMARK  132  A    between atoms: _349  and  _350
REMARK  133  A    between atoms: _349  and  _352
REMARK  134  A    between atoms: _352  and  _353
REMARK  135  A    between atoms: _356  and  _358
REMARK  136  A    between atoms: _358  and  _359
REMARK  137  A    between atoms: _358  and  _361
REMARK  138  A    between atoms: _361  and  _362
REMARK  139  A    between atoms: _365  and  _367
REMARK  140  A    between atoms: _367  and  _368
REMARK  141  A    between atoms: _367  and  _370
REMARK  142  A    between atoms: _370  and  _371
REMARK  143  A    between atoms: _371  and  _372
REMARK  144  A    between atoms: _372  and  _373
REMARK                            x       y       z     vdW  Elec       q    Type
REMARK                         _______ _______ _______ _____ _____    ______ ____
ROOT
ATOM      1  CA  THR A   1       7.798   1.098   8.659  0.00  0.00    +0.160 C 
ENDROOT
BRANCH   1   2
ATOM      2  N   THR A   1       7.774   2.251   9.503  0.00  0.00    -0.237 NA
ATOM      3  H   THR A   1       8.610   2.869   9.538  0.00  0.00    +0.142 HD
ENDBRANCH   1   2
BRANCH   1   4
ATOM      4  C   THR A   1       8.914   0.200   9.050  0.00  0.00    +0.227 C 
ATOM      5  O   THR A   1      10.017   0.650   9.275  0.00  0.00    -0.287 OA
ENDBRANCH   1   4
BRANCH   1   6
ATOM      6  CB  THR A   1       7.980   1.531   7.199  0.00  0.00    +0.134 C 
ATOM      7  CG2 THR A   1       7.686   0.381   6.273  0.00  0.00    +0.034 C 
BRANCH   6   8
ATOM      8  OG1 THR A   1       7.090   2.626   6.954  0.00  0.00    -0.383 OA
ATOM      9  HG1 THR A   1       7.188   2.926   6.016  0.00  0.00    +0.210 HD
ENDBRANCH   6   8
ENDBRANCH   1   6
TORSDOF 4
REMARK  Name = ../refined-set-2016/4oct/4oct_pocket.pdb
REMARK  144 active torsions:
REMARK  status: ('A' for Active; 'I' for Inactive)
REMARK    1  A    between atoms: _1  and  _3
REMARK    2  A    between atoms: _3  and  _4
REMARK    3  A    between atoms: _3  and  _6
REMARK    4  A    between atoms: _6  and  _7
REMARK    5  A    between atoms: _7  and  _8
REMARK    6  A    between atoms: _8  and  _9
REMARK    7  A    between atoms: _18  and  _20
REMARK    8  A    between atoms: _20  and  _21
REMARK    9  A    between atoms: _20  and  _23
REMARK   10  A    between atoms: _23  and  _24
REMARK   11  A    between atoms: _24  and  _25
REMARK   12  A    between atoms: _25  and  _26
REMARK   13  A    between atoms: _26  and  _27
REMARK   14  A    between atoms: _31  and  _33
REMARK   15  A    between atoms: _33  and  _34
REMARK   16  A    between atoms: _33  and  _36
REMARK   17  A    between atoms: _36  and  _37
REMARK   18  A    between atoms: _43  and  _45
REMARK   19  A    between atoms: _45  and  _46
REMARK   20  A    between atoms: _45  and  _48
REMARK   21  A    between atoms: _48  and  _49
REMARK   22  A    between atoms: _54  and  _55
REMARK   23  A    between atoms: _57  and  _59
REMARK   24  A    between atoms: _59  and  _60
REMARK   25  A    between atoms: _59  and  _62
REMARK   26  A    between atoms: _65  and  _67
REMARK   27  A    between atoms: _67  and  _68
REMARK   28  A    between atoms: _67  and  _70
REMARK   29  A    between atoms: _70  and  _71
REMARK   30  A    between atoms: _74  and  _76
REMARK   31  A    between atoms: _76  and  _77
REMARK   32  A    between atoms: _76  and  _79
REMARK   33  A    between atoms: _79  and  _80
REMARK   34  A    between atoms: _85  and  _87
REMARK   35  A    between atoms: _87  and  _88
REMARK   36  A    between atoms: _87  and  _90
REMARK   37  A    between atoms: _90  and  _91
REMARK   38  A    between atoms: _94  and  _96
REMARK   39  A    between atoms: _96  and  _97
REMARK   40  A    between atoms: _96  and  _99
REMARK   41  A    between atoms: _99  and  _100
REMARK   42  A    between atoms: _105  and  _106
REMARK   43  A    between atoms: _108  and  _110
REMARK   44  A    between atoms: _110  and  _111
REMARK   45  A    between atoms: _110  and  _113
REMARK   46  A    between atoms: _115  and  _117
REMARK   47  A    between atoms: _117  and  _118
REMARK   48  A    between atoms: _117  and  _120
REMARK   49  A    between atoms: _120  and  _121
REMARK   50  A    between atoms: _124  and  _126
REMARK   51  A    between atoms: _126  and  _127
REMARK   52  A    between atoms: _126  and  _129
REMARK   53  A    between atoms: _132  and  _134
REMARK   54  A    between atoms: _145  and  _148
REMARK   55  A    between atoms: _153  and  _154
REMARK   56  A    between atoms: _161  and  _162
REMARK   57  A    between atoms: _167  and  _169
REMARK   58  A    between atoms: _169  and  _170
REMARK   59  A    between atoms: _169  and  _172
REMARK   60  A    between atoms: _172  and  _173
REMARK   61  A    between atoms: _179  and  _181
REMARK   62  A    between atoms: _181  and  _182
REMARK   63  A    between atoms: _181  and  _184
REMARK   64  A    between atoms: _184  and  _185
REMARK   65  A    between atoms: _188  and  _190
REMARK   66  A    between atoms: _190  and  _191
REMARK   67  A    between atoms: _190  and  _193
REMARK   68  A    between atoms: _193  and  _194
REMARK   69  A    between atoms: _196  and  _198
REMARK   70  A    between atoms: _198  and  _199
REMARK   71  A    between atoms: _198  and  _201
REMARK   72  A    between atoms: _204  and  _206
REMARK   73  A    between atoms: _206  and  _207
REMARK   74  A    between atoms: _206  and  _209
REMARK   75  A    between atoms: _209  and  _210
REMARK   76  A    between atoms: _212  and  _214
REMARK   77  A    between atoms: _214  and  _215
REMARK   78  A    between atoms: _214  and  _217
REMARK   79  A    between atoms: _217  and  _218
REMARK   80  A    between atoms: _224  and  _226
REMARK   81  A    between atoms: _226  and  _227
REMARK   82  A    between atoms: _226  and  _229
REMARK   83  A    between atoms: _229  and  _230
REMARK   84  A    between atoms: _232  and  _234
REMARK   85  A    between atoms: _234  and  _235
REMARK   86  A    between atoms: _238  and  _240
REMARK   87  A    between atoms: _240  and  _241
REMARK   88  A    between atoms: _240  and  _243
REMARK   89  A    between atoms: _243  and  _244
REMARK   90  A    between atoms: _247  and  _249
REMARK   91  A    between atoms: _249  and  _250
REMARK   92  A    between atoms: _249  and  _252
REMARK   93  A    between atoms: _254  and  _256
REMARK   94  A    between atoms: _256  and  _257
REMARK   95  A    between atoms: _256  and  _259
REMARK   96  A    between atoms: _262  and  _264
REMARK   97  A    between atoms: _264  and  _265
REMARK   98  A    between atoms: _264  and  _267
REMARK   99  A    between atoms: _267  and  _268
REMARK  100  A    between atoms: _271  and  _273
REMARK  101  A    between atoms: _273  and  _274
REMARK  102  A    between atoms: _273  and  _276
REMARK  103  A    between atoms: _276  and  _277
REMARK  104  A    between atoms: _280  and  _282
REMARK  105  A    between atoms: _282  and  _283
REMARK  106  A    between atoms: _282  and  _285
REMARK  107  A    between atoms: _285  and  _286
REMARK  108  A    between atoms: _290  and  MN_382
REMARK  109  A    between atoms: _291  and  _293
REMARK  110  A    between atoms: _293  and  _294
REMARK  111  A    between atoms: _293  and  _296
REMARK  112  A    between atoms: _298  and  _300
REMARK  113  A    between atoms: _300  and  _301
REMARK  114  A    between atoms: _300  and  _303
REMARK  115  A    between atoms: _303  and  _304
REMARK  116  A    between atoms: _307  and  _309
REMARK  117  A    between atoms: _309  and  _310
REMARK  118  A    between atoms: _309  and  _312
REMARK  119  A    between atoms: _312  and  _313
REMARK  120  A    between atoms: _316  and  _318
REMARK  121  A    between atoms: _318  and  _319
REMARK  122  A    between atoms: _318  and  _321
REMARK  123  A    between atoms: _321  and  _322
REMARK  124  A    between atoms: _322  and  _323
REMARK  125  A    between atoms: _323  and  _324
REMARK  126  A    between atoms: _333  and  _335
REMARK  127  A    between atoms: _335  and  _336
REMARK  128  A    between atoms: _339  and  _341
REMARK  129  A    between atoms: _341  and  _342
REMARK  130  A    between atoms: _341  and  _344
REMARK  131  A    between atoms: _347  and  _349
REMARK  132  A    between atoms: _349  and  _350
REMARK  133  A    between atoms: _349  and  _352
REMARK  134  A    between atoms: _352  and  _353
REMARK  135  A    between atoms: _356  and  _358
REMARK  136  A    between atoms: _358  and  _359
REMARK  137  A    between atoms: _358  and  _361
REMARK  138  A    between atoms: _361  and  _362
REMARK  139  A    between atoms: _365  and  _367
REMARK  140  A    between atoms: _367  and  _368
REMARK  141  A    between atoms: _367  and  _370
REMARK  142  A    between atoms: _370  and  _371
REMARK  143  A    between atoms: _371  and  _372
REMARK  144  A    between atoms: _372  and  _373
REMARK                            x       y       z     vdW  Elec       q    Type
REMARK                         _______ _______ _______ _____ _____    ______ ____
ROOT
ATOM      1  CA  LEU A   1      11.176  -4.341   7.077  0.00  0.00    +0.133 C 
ENDROOT
BRANCH   1   2
ATOM      2  N   LEU A   1      10.943  -3.291   8.083  0.00  0.00    -0.239 NA
ATOM      3  H   LEU A   1      11.715  -2.637   8.326  0.00  0.00    +0.142 HD
ENDBRANCH   1   2
BRANCH   1   4
ATOM      4  C   LEU A   1      11.940  -5.537   7.630  0.00  0.00    +0.224 C 
ATOM      5  O   LEU A   1      12.896  -5.370   8.347  0.00  0.00    -0.287 OA
ENDBRANCH   1   4
BRANCH   1   6
ATOM      6  CB  LEU A   1      11.958  -3.795   5.886  0.00  0.00    +0.025 C 
BRANCH   6   7
ATOM      7  CG  LEU A   1      11.485  -2.534   5.167  0.00  0.00    +0.002 C 
ATOM      8  CD2 LEU A   1      10.062  -2.649   4.663  0.00  0.00    +0.000 C 
ATOM      9  CD1 LEU A   1      12.443  -2.301   4.009  0.00  0.00    +0.000 C 
ENDBRANCH   6   7
ENDBRANCH   1   6
TORSDOF 4
REMARK  Name = ../refined-set-2016/4oct/4oct_pocket.pdb
REMARK  144 active torsions:
REMARK  status: ('A' for Active; 'I' for Inactive)
REMARK    1  A    between atoms: _1  and  _3
REMARK    2  A    between atoms: _3  and  _4
REMARK    3  A    between atoms: _3  and  _6
REMARK    4  A    between atoms: _6  and  _7
REMARK    5  A    between atoms: _7  and  _8
REMARK    6  A    between atoms: _8  and  _9
REMARK    7  A    between atoms: _18  and  _20
REMARK    8  A    between atoms: _20  and  _21
REMARK    9  A    between atoms: _20  and  _23
REMARK   10  A    between atoms: _23  and  _24
REMARK   11  A    between atoms: _24  and  _25
REMARK   12  A    between atoms: _25  and  _26
REMARK   13  A    between atoms: _26  and  _27
REMARK   14  A    between atoms: _31  and  _33
REMARK   15  A    between atoms: _33  and  _34
REMARK   16  A    between atoms: _33  and  _36
REMARK   17  A    between atoms: _36  and  _37
REMARK   18  A    between atoms: _43  and  _45
REMARK   19  A    between atoms: _45  and  _46
REMARK   20  A    between atoms: _45  and  _48
REMARK   21  A    between atoms: _48  and  _49
REMARK   22  A    between atoms: _54  and  _55
REMARK   23  A    between atoms: _57  and  _59
REMARK   24  A    between atoms: _59  and  _60
REMARK   25  A    between atoms: _59  and  _62
REMARK   26  A    between atoms: _65  and  _67
REMARK   27  A    between atoms: _67  and  _68
REMARK   28  A    between atoms: _67  and  _70
REMARK   29  A    between atoms: _70  and  _71
REMARK   30  A    between atoms: _74  and  _76
REMARK   31  A    between atoms: _76  and  _77
REMARK   32  A    between atoms: _76  and  _79
REMARK   33  A    between atoms: _79  and  _80
REMARK   34  A    between atoms: _85  and  _87
REMARK   35  A    between atoms: _87  and  _88
REMARK   36  A    between atoms: _87  and  _90
REMARK   37  A    between atoms: _90  and  _91
REMARK   38  A    between atoms: _94  and  _96
REMARK   39  A    between atoms: _96  and  _97
REMARK   40  A    between atoms: _96  and  _99
REMARK   41  A    between atoms: _99  and  _100
REMARK   42  A    between atoms: _105  and  _106
REMARK   43  A    between atoms: _108  and  _110
REMARK   44  A    between atoms: _110  and  _111
REMARK   45  A    between atoms: _110  and  _113
REMARK   46  A    between atoms: _115  and  _117
REMARK   47  A    between atoms: _117  and  _118
REMARK   48  A    between atoms: _117  and  _120
REMARK   49  A    between atoms: _120  and  _121
REMARK   50  A    between atoms: _124  and  _126
REMARK   51  A    between atoms: _126  and  _127
REMARK   52  A    between atoms: _126  and  _129
REMARK   53  A    between atoms: _132  and  _134
REMARK   54  A    between atoms: _145  and  _148
REMARK   55  A    between atoms: _153  and  _154
REMARK   56  A    between atoms: _161  and  _162
REMARK   57  A    between atoms: _167  and  _169
REMARK   58  A    between atoms: _169  and  _170
REMARK   59  A    between atoms: _169  and  _172
REMARK   60  A    between atoms: _172  and  _173
REMARK   61  A    between atoms: _179  and  _181
REMARK   62  A    between atoms: _181  and  _182
REMARK   63  A    between atoms: _181  and  _184
REMARK   64  A    between atoms: _184  and  _185
REMARK   65  A    between atoms: _188  and  _190
REMARK   66  A    between atoms: _190  and  _191
REMARK   67  A    between atoms: _190  and  _193
REMARK   68  A    between atoms: _193  and  _194
REMARK   69  A    between atoms: _196  and  _198
REMARK   70  A    between atoms: _198  and  _199
REMARK   71  A    between atoms: _198  and  _201
REMARK   72  A    between atoms: _204  and  _206
REMARK   73  A    between atoms: _206  and  _207
REMARK   74  A    between atoms: _206  and  _209
REMARK   75  A    between atoms: _209  and  _210
REMARK   76  A    between atoms: _212  and  _214
REMARK   77  A    between atoms: _214  and  _215
REMARK   78  A    between atoms: _214  and  _217
REMARK   79  A    between atoms: _217  and  _218
REMARK   80  A    between atoms: _224  and  _226
REMARK   81  A    between atoms: _226  and  _227
REMARK   82  A    between atoms: _226  and  _229
REMARK   83  A    between atoms: _229  and  _230
REMARK   84  A    between atoms: _232  and  _234
REMARK   85  A    between atoms: _234  and  _235
REMARK   86  A    between atoms: _238  and  _240
REMARK   87  A    between atoms: _240  and  _241
REMARK   88  A    between atoms: _240  and  _243
REMARK   89  A    between atoms: _243  and  _244
REMARK   90  A    between atoms: _247  and  _249
REMARK   91  A    between atoms: _249  and  _250
REMARK   92  A    between atoms: _249  and  _252
REMARK   93  A    between atoms: _254  and  _256
REMARK   94  A    between atoms: _256  and  _257
REMARK   95  A    between atoms: _256  and  _259
REMARK   96  A    between atoms: _262  and  _264
REMARK   97  A    between atoms: _264  and  _265
REMARK   98  A    between atoms: _264  and  _267
REMARK   99  A    between atoms: _267  and  _268
REMARK  100  A    between atoms: _271  and  _273
REMARK  101  A    between atoms: _273  and  _274
REMARK  102  A    between atoms: _273  and  _276
REMARK  103  A    between atoms: _276  and  _277
REMARK  104  A    between atoms: _280  and  _282
REMARK  105  A    between atoms: _282  and  _283
REMARK  106  A    between atoms: _282  and  _285
REMARK  107  A    between atoms: _285  and  _286
REMARK  108  A    between atoms: _290  and  MN_382
REMARK  109  A    between atoms: _291  and  _293
REMARK  110  A    between atoms: _293  and  _294
REMARK  111  A    between atoms: _293  and  _296
REMARK  112  A    between atoms: _298  and  _300
REMARK  113  A    between atoms: _300  and  _301
REMARK  114  A    between atoms: _300  and  _303
REMARK  115  A    between atoms: _303  and  _304
REMARK  116  A    between atoms: _307  and  _309
REMARK  117  A    between atoms: _309  and  _310
REMARK  118  A    between atoms: _309  and  _312
REMARK  119  A    between atoms: _312  and  _313
REMARK  120  A    between atoms: _316  and  _318
REMARK  121  A    between atoms: _318  and  _319
REMARK  122  A    between atoms: _318  and  _321
REMARK  123  A    between atoms: _321  and  _322
REMARK  124  A    between atoms: _322  and  _323
REMARK  125  A    between atoms: _323  and  _324
REMARK  126  A    between atoms: _333  and  _335
REMARK  127  A    between atoms: _335  and  _336
REMARK  128  A    between atoms: _339  and  _341
REMARK  129  A    between atoms: _341  and  _342
REMARK  130  A    between atoms: _341  and  _344
REMARK  131  A    between atoms: _347  and  _349
REMARK  132  A    between atoms: _349  and  _350
REMARK  133  A    between atoms: _349  and  _352
REMARK  134  A    between atoms: _352  and  _353
REMARK  135  A    between atoms: _356  and  _358
REMARK  136  A    between atoms: _358  and  _359
REMARK  137  A    between atoms: _358  and  _361
REMARK  138  A    between atoms: _361  and  _362
REMARK  139  A    between atoms: _365  and  _367
REMARK  140  A    between atoms: _367  and  _368
REMARK  141  A    between atoms: _367  and  _370
REMARK  142  A    between atoms: _370  and  _371
REMARK  143  A    between atoms: _371  and  _372
REMARK  144  A    between atoms: _372  and  _373
REMARK                            x       y       z     vdW  Elec       q    Type
REMARK                         _______ _______ _______ _____ _____    ______ ____
ROOT
ATOM      1  CA  ILE A   1       8.201  13.045  -3.656  0.00  0.00    +0.133 C 
ENDROOT
BRANCH   1   2
ATOM      2  N   ILE A   1       7.709  11.993  -4.565  0.00  0.00    -0.239 NA
ATOM      3  H   ILE A   1       8.139  11.894  -5.507  0.00  0.00    +0.142 HD
ENDBRANCH   1   2
BRANCH   1   4
ATOM      4  CB  ILE A   1       9.708  12.917  -3.403  0.00  0.00    +0.023 C 
ATOM      5  CG2 ILE A   1      10.267  14.200  -2.787  0.00  0.00    +0.002 C 
BRANCH   4   6
ATOM      6  CG1 ILE A   1       9.944  11.762  -2.431  0.00  0.00    +0.002 C 
ATOM      7  CD1 ILE A   1      11.379  11.328  -2.301  0.00  0.00    +0.000 C 
ENDBRANCH   4   6
ENDBRANCH   1   4
BRANCH   1   8
ATOM      8  C   ILE A   1       7.807  14.407  -4.254  0.00  0.00    +0.224 C 
ATOM      9  O   ILE A   1       8.551  15.002  -5.052  0.00  0.00    -0.287 OA
ENDBRANCH   1   8
TORSDOF 4
REMARK  Name = ../refined-set-2016/4oct/4oct_pocket.pdb
REMARK  144 active torsions:
REMARK  status: ('A' for Active; 'I' for Inactive)
REMARK    1  A    between atoms: _1  and  _3
REMARK    2  A    between atoms: _3  and  _4
REMARK    3  A    between atoms: _3  and  _6
REMARK    4  A    between atoms: _6  and  _7
REMARK    5  A    between atoms: _7  and  _8
REMARK    6  A    between atoms: _8  and  _9
REMARK    7  A    between atoms: _18  and  _20
REMARK    8  A    between atoms: _20  and  _21
REMARK    9  A    between atoms: _20  and  _23
REMARK   10  A    between atoms: _23  and  _24
REMARK   11  A    between atoms: _24  and  _25
REMARK   12  A    between atoms: _25  and  _26
REMARK   13  A    between atoms: _26  and  _27
REMARK   14  A    between atoms: _31  and  _33
REMARK   15  A    between atoms: _33  and  _34
REMARK   16  A    between atoms: _33  and  _36
REMARK   17  A    between atoms: _36  and  _37
REMARK   18  A    between atoms: _43  and  _45
REMARK   19  A    between atoms: _45  and  _46
REMARK   20  A    between atoms: _45  and  _48
REMARK   21  A    between atoms: _48  and  _49
REMARK   22  A    between atoms: _54  and  _55
REMARK   23  A    between atoms: _57  and  _59
REMARK   24  A    between atoms: _59  and  _60
REMARK   25  A    between atoms: _59  and  _62
REMARK   26  A    between atoms: _65  and  _67
REMARK   27  A    between atoms: _67  and  _68
REMARK   28  A    between atoms: _67  and  _70
REMARK   29  A    between atoms: _70  and  _71
REMARK   30  A    between atoms: _74  and  _76
REMARK   31  A    between atoms: _76  and  _77
REMARK   32  A    between atoms: _76  and  _79
REMARK   33  A    between atoms: _79  and  _80
REMARK   34  A    between atoms: _85  and  _87
REMARK   35  A    between atoms: _87  and  _88
REMARK   36  A    between atoms: _87  and  _90
REMARK   37  A    between atoms: _90  and  _91
REMARK   38  A    between atoms: _94  and  _96
REMARK   39  A    between atoms: _96  and  _97
REMARK   40  A    between atoms: _96  and  _99
REMARK   41  A    between atoms: _99  and  _100
REMARK   42  A    between atoms: _105  and  _106
REMARK   43  A    between atoms: _108  and  _110
REMARK   44  A    between atoms: _110  and  _111
REMARK   45  A    between atoms: _110  and  _113
REMARK   46  A    between atoms: _115  and  _117
REMARK   47  A    between atoms: _117  and  _118
REMARK   48  A    between atoms: _117  and  _120
REMARK   49  A    between atoms: _120  and  _121
REMARK   50  A    between atoms: _124  and  _126
REMARK   51  A    between atoms: _126  and  _127
REMARK   52  A    between atoms: _126  and  _129
REMARK   53  A    between atoms: _132  and  _134
REMARK   54  A    between atoms: _145  and  _148
REMARK   55  A    between atoms: _153  and  _154
REMARK   56  A    between atoms: _161  and  _162
REMARK   57  A    between atoms: _167  and  _169
REMARK   58  A    between atoms: _169  and  _170
REMARK   59  A    between atoms: _169  and  _172
REMARK   60  A    between atoms: _172  and  _173
REMARK   61  A    between atoms: _179  and  _181
REMARK   62  A    between atoms: _181  and  _182
REMARK   63  A    between atoms: _181  and  _184
REMARK   64  A    between atoms: _184  and  _185
REMARK   65  A    between atoms: _188  and  _190
REMARK   66  A    between atoms: _190  and  _191
REMARK   67  A    between atoms: _190  and  _193
REMARK   68  A    between atoms: _193  and  _194
REMARK   69  A    between atoms: _196  and  _198
REMARK   70  A    between atoms: _198  and  _199
REMARK   71  A    between atoms: _198  and  _201
REMARK   72  A    between atoms: _204  and  _206
REMARK   73  A    between atoms: _206  and  _207
REMARK   74  A    between atoms: _206  and  _209
REMARK   75  A    between atoms: _209  and  _210
REMARK   76  A    between atoms: _212  and  _214
REMARK   77  A    between atoms: _214  and  _215
REMARK   78  A    between atoms: _214  and  _217
REMARK   79  A    between atoms: _217  and  _218
REMARK   80  A    between atoms: _224  and  _226
REMARK   81  A    between atoms: _226  and  _227
REMARK   82  A    between atoms: _226  and  _229
REMARK   83  A    between atoms: _229  and  _230
REMARK   84  A    between atoms: _232  and  _234
REMARK   85  A    between atoms: _234  and  _235
REMARK   86  A    between atoms: _238  and  _240
REMARK   87  A    between atoms: _240  and  _241
REMARK   88  A    between atoms: _240  and  _243
REMARK   89  A    between atoms: _243  and  _244
REMARK   90  A    between atoms: _247  and  _249
REMARK   91  A    between atoms: _249  and  _250
REMARK   92  A    between atoms: _249  and  _252
REMARK   93  A    between atoms: _254  and  _256
REMARK   94  A    between atoms: _256  and  _257
REMARK   95  A    between atoms: _256  and  _259
REMARK   96  A    between atoms: _262  and  _264
REMARK   97  A    between atoms: _264  and  _265
REMARK   98  A    between atoms: _264  and  _267
REMARK   99  A    between atoms: _267  and  _268
REMARK  100  A    between atoms: _271  and  _273
REMARK  101  A    between atoms: _273  and  _274
REMARK  102  A    between atoms: _273  and  _276
REMARK  103  A    between atoms: _276  and  _277
REMARK  104  A    between atoms: _280  and  _282
REMARK  105  A    between atoms: _282  and  _283
REMARK  106  A    between atoms: _282  and  _285
REMARK  107  A    between atoms: _285  and  _286
REMARK  108  A    between atoms: _290  and  MN_382
REMARK  109  A    between atoms: _291  and  _293
REMARK  110  A    between atoms: _293  and  _294
REMARK  111  A    between atoms: _293  and  _296
REMARK  112  A    between atoms: _298  and  _300
REMARK  113  A    between atoms: _300  and  _301
REMARK  114  A    between atoms: _300  and  _303
REMARK  115  A    between atoms: _303  and  _304
REMARK  116  A    between atoms: _307  and  _309
REMARK  117  A    between atoms: _309  and  _310
REMARK  118  A    between atoms: _309  and  _312
REMARK  119  A    between atoms: _312  and  _313
REMARK  120  A    between atoms: _316  and  _318
REMARK  121  A    between atoms: _318  and  _319
REMARK  122  A    between atoms: _318  and  _321
REMARK  123  A    between atoms: _321  and  _322
REMARK  124  A    between atoms: _322  and  _323
REMARK  125  A    between atoms: _323  and  _324
REMARK  126  A    between atoms: _333  and  _335
REMARK  127  A    between atoms: _335  and  _336
REMARK  128  A    between atoms: _339  and  _341
REMARK  129  A    between atoms: _341  and  _342
REMARK  130  A    between atoms: _341  and  _344
REMARK  131  A    between atoms: _347  and  _349
REMARK  132  A    between atoms: _349  and  _350
REMARK  133  A    between atoms: _349  and  _352
REMARK  134  A    between atoms: _352  and  _353
REMARK  135  A    between atoms: _356  and  _358
REMARK  136  A    between atoms: _358  and  _359
REMARK  137  A    between atoms: _358  and  _361
REMARK  138  A    between atoms: _361  and  _362
REMARK  139  A    between atoms: _365  and  _367
REMARK  140  A    between atoms: _367  and  _368
REMARK  141  A    between atoms: _367  and  _370
REMARK  142  A    between atoms: _370  and  _371
REMARK  143  A    between atoms: _371  and  _372
REMARK  144  A    between atoms: _372  and  _373
REMARK                            x       y       z     vdW  Elec       q    Type
REMARK                         _______ _______ _______ _____ _____    ______ ____
ROOT
ATOM      1  C   ALA A   2      12.307  12.054   5.959  0.00  0.00    +0.241 C 
ATOM      2  O   ALA A   2      11.198  11.847   6.387  0.00  0.00    -0.273 OA
ATOM      3  N   VAL A   3      13.271  11.191   6.072  0.00  0.00    -0.297 N 
ATOM      4  H   VAL A   3      14.206  11.406   5.671  0.00  0.00    +0.150 HD
ENDROOT
BRANCH   1   5
ATOM      5  CA  ALA A   2      12.651  13.331   5.290  0.00  0.00    +0.149 C 
ATOM      6  CB  ALA A   2      13.144  14.343   6.307  0.00  0.00    +0.031 C 
BRANCH   5   8
ATOM      7  C   ARG A   1      11.571  14.327   3.373  0.00  0.00    +0.238 C 
ATOM      8  N   ALA A   2      11.477  13.826   4.596  0.00  0.00    -0.297 N 
ATOM      9  H   ALA A   2      10.549  13.787   5.065  0.00  0.00    +0.150 HD
ATOM     10  O   ARG A   1      12.665  14.530   2.829  0.00  0.00    -0.274 OA
BRANCH   7  11
ATOM     11  CA  ARG A   1      10.255  14.638   2.654  0.00  0.00    +0.145 C 
BRANCH  11  12
ATOM     12  N   ARG A   1      10.433  15.800   1.777  0.00  0.00    -0.238 NA
ATOM     13  H   ARG A   1      11.235  15.804   1.115  0.00  0.00    +0.142 HD
ENDBRANCH  11  12
BRANCH  11  14
ATOM     14  CB  ARG A   1       9.791  13.410   1.846  0.00  0.00    +0.030 C 
BRANCH  14  15
ATOM     15  CG  ARG A   1       9.728  12.142   2.692  0.00  0.00    +0.045 C 
BRANCH  15  16
ATOM     16  CD  ARG A   1       9.012  10.998   2.028  0.00  0.00    +0.174 C 
BRANCH  16  17
ATOM     17  NE  ARG A   1       9.050   9.759   2.845  0.00  0.00    -0.265 N 
ATOM     18  HE  ARG A   1       8.252   9.580   3.488  0.00  0.00    +0.259 HD
ATOM     19  CZ  ARG A   1      10.024   8.869   2.814  0.00  0.00    +0.342 C 
ATOM     20  NH2 ARG A   1       9.945   7.776   3.572  0.00  0.00    -0.292 N 
ATOM     21 HH21 ARG A   1       9.118   7.627   4.185  0.00  0.00    +0.255 HD
ATOM     22 HH22 ARG A   1      10.710   7.072   3.551  0.00  0.00    +0.255 HD
ATOM     23  NH1 ARG A   1      11.112   9.069   2.077  0.00  0.00    -0.292 N 
ATOM     24 HH11 ARG A   1      11.870   8.357   2.065  0.00  0.00    +0.255 HD
ATOM     25 HH12 ARG A   1      11.205   9.938   1.513  0.00  0.00    +0.255 HD
ENDBRANCH  16  17
ENDBRANCH  15  16
ENDBRANCH  14  15
ENDBRANCH  11  14
ENDBRANCH   7  11
ENDBRANCH   5   8
ENDBRANCH   1   5
BRANCH   3  26
ATOM     26  CA  VAL A   3      13.051   9.920   6.758  0.00  0.00    +0.149 C 
BRANCH  26  27
ATOM     27  C   VAL A   3      14.228   9.650   7.672  0.00  0.00    +0.241 C 
ATOM     28  N   ILE A   4      13.931   9.039   8.826  0.00  0.00    -0.297 N 
ATOM     29  H   ILE A   4      12.932   8.887   9.073  0.00  0.00    +0.150 HD
ATOM     30  O   VAL A   3      15.390  10.018   7.345  0.00  0.00    -0.273 OA
BRANCH  28  31
ATOM     31  CA  ILE A   4      14.968   8.578   9.752  0.00  0.00    +0.149 C 
BRANCH  31  32
ATOM     32  C   ILE A   4      15.074   7.065   9.756  0.00  0.00    +0.241 C 
ATOM     33  O   ILE A   4      14.136   6.394  10.147  0.00  0.00    -0.273 OA
ATOM     34  N   ILE A   5      16.244   6.528   9.396  0.00  0.00    -0.298 N 
ATOM     35  H   ILE A   5      17.036   7.157   9.154  0.00  0.00    +0.150 HD
BRANCH  34  36
ATOM     36  CA  ILE A   5      16.441   5.083   9.333  0.00  0.00    +0.137 C 
BRANCH  36  37
ATOM     37  C   ILE A   5      17.236   4.533  10.558  0.00  0.00    +0.227 C 
ATOM     38  O   ILE A   5      18.433   4.832  10.757  0.00  0.00    -0.286 OA
ENDBRANCH  36  37
BRANCH  36  39
ATOM     39  CB  ILE A   5      17.119   4.694   8.016  0.00  0.00    +0.026 C 
ATOM     40  CG2 ILE A   5      17.097   3.189   7.839  0.00  0.00    +0.002 C 
BRANCH  39  41
ATOM     41  CG1 ILE A   5      16.372   5.348   6.840  0.00  0.00    +0.002 C 
ATOM     42  CD1 ILE A   5      17.148   5.381   5.551  0.00  0.00    +0.000 C 
ENDBRANCH  39  41
ENDBRANCH  36  39
ENDBRANCH  34  36
ENDBRANCH  31  32
BRANCH  31  43
ATOM     43  CB  ILE A   4      14.668   9.010  11.198  0.00  0.00    +0.027 C 
ATOM     44  CG2 ILE A   4      15.764   8.478  12.108  0.00  0.00    +0.002 C 
BRANCH  43  45
ATOM     45  CG1 ILE A   4      14.555  10.549  11.268  0.00  0.00    +0.002 C 
ATOM     46  CD1 ILE A   4      14.363  11.109  12.637  0.00  0.00    +0.000 C 
ENDBRANCH  43  45
ENDBRANCH  31  43
ENDBRANCH  28  31
ENDBRANCH  26  27
BRANCH  26  47
ATOM     47  CB  VAL A   3      12.864   8.773   5.751  0.00  0.00    +0.027 C 
ATOM     48  CG2 VAL A   3      12.596   7.458   6.461  0.00  0.00    +0.002 C 
ATOM     49  CG1 VAL A   3      14.095   8.638   4.875  0.00  0.00    +0.002 C 
ENDBRANCH  26  47
ENDBRANCH   3  26
TORSDOF 19
REMARK  Name = ../refined-set-2016/4oct/4oct_pocket.pdb
REMARK  144 active torsions:
REMARK  status: ('A' for Active; 'I' for Inactive)
REMARK    1  A    between atoms: _1  and  _3
REMARK    2  A    between atoms: _3  and  _4
REMARK    3  A    between atoms: _3  and  _6
REMARK    4  A    between atoms: _6  and  _7
REMARK    5  A    between atoms: _7  and  _8
REMARK    6  A    between atoms: _8  and  _9
REMARK    7  A    between atoms: _18  and  _20
REMARK    8  A    between atoms: _20  and  _21
REMARK    9  A    between atoms: _20  and  _23
REMARK   10  A    between atoms: _23  and  _24
REMARK   11  A    between atoms: _24  and  _25
REMARK   12  A    between atoms: _25  and  _26
REMARK   13  A    between atoms: _26  and  _27
REMARK   14  A    between atoms: _31  and  _33
REMARK   15  A    between atoms: _33  and  _34
REMARK   16  A    between atoms: _33  and  _36
REMARK   17  A    between atoms: _36  and  _37
REMARK   18  A    between atoms: _43  and  _45
REMARK   19  A    between atoms: _45  and  _46
REMARK   20  A    between atoms: _45  and  _48
REMARK   21  A    between atoms: _48  and  _49
REMARK   22  A    between atoms: _54  and  _55
REMARK   23  A    between atoms: _57  and  _59
REMARK   24  A    between atoms: _59  and  _60
REMARK   25  A    between atoms: _59  and  _62
REMARK   26  A    between atoms: _65  and  _67
REMARK   27  A    between atoms: _67  and  _68
REMARK   28  A    between atoms: _67  and  _70
REMARK   29  A    between atoms: _70  and  _71
REMARK   30  A    between atoms: _74  and  _76
REMARK   31  A    between atoms: _76  and  _77
REMARK   32  A    between atoms: _76  and  _79
REMARK   33  A    between atoms: _79  and  _80
REMARK   34  A    between atoms: _85  and  _87
REMARK   35  A    between atoms: _87  and  _88
REMARK   36  A    between atoms: _87  and  _90
REMARK   37  A    between atoms: _90  and  _91
REMARK   38  A    between atoms: _94  and  _96
REMARK   39  A    between atoms: _96  and  _97
REMARK   40  A    between atoms: _96  and  _99
REMARK   41  A    between atoms: _99  and  _100
REMARK   42  A    between atoms: _105  and  _106
REMARK   43  A    between atoms: _108  and  _110
REMARK   44  A    between atoms: _110  and  _111
REMARK   45  A    between atoms: _110  and  _113
REMARK   46  A    between atoms: _115  and  _117
REMARK   47  A    between atoms: _117  and  _118
REMARK   48  A    between atoms: _117  and  _120
REMARK   49  A    between atoms: _120  and  _121
REMARK   50  A    between atoms: _124  and  _126
REMARK   51  A    between atoms: _126  and  _127
REMARK   52  A    between atoms: _126  and  _129
REMARK   53  A    between atoms: _132  and  _134
REMARK   54  A    between atoms: _145  and  _148
REMARK   55  A    between atoms: _153  and  _154
REMARK   56  A    between atoms: _161  and  _162
REMARK   57  A    between atoms: _167  and  _169
REMARK   58  A    between atoms: _169  and  _170
REMARK   59  A    between atoms: _169  and  _172
REMARK   60  A    between atoms: _172  and  _173
REMARK   61  A    between atoms: _179  and  _181
REMARK   62  A    between atoms: _181  and  _182
REMARK   63  A    between atoms: _181  and  _184
REMARK   64  A    between atoms: _184  and  _185
REMARK   65  A    between atoms: _188  and  _190
REMARK   66  A    between atoms: _190  and  _191
REMARK   67  A    between atoms: _190  and  _193
REMARK   68  A    between atoms: _193  and  _194
REMARK   69  A    between atoms: _196  and  _198
REMARK   70  A    between atoms: _198  and  _199
REMARK   71  A    between atoms: _198  and  _201
REMARK   72  A    between atoms: _204  and  _206
REMARK   73  A    between atoms: _206  and  _207
REMARK   74  A    between atoms: _206  and  _209
REMARK   75  A    between atoms: _209  and  _210
REMARK   76  A    between atoms: _212  and  _214
REMARK   77  A    between atoms: _214  and  _215
REMARK   78  A    between atoms: _214  and  _217
REMARK   79  A    between atoms: _217  and  _218
REMARK   80  A    between atoms: _224  and  _226
REMARK   81  A    between atoms: _226  and  _227
REMARK   82  A    between atoms: _226  and  _229
REMARK   83  A    between atoms: _229  and  _230
REMARK   84  A    between atoms: _232  and  _234
REMARK   85  A    between atoms: _234  and  _235
REMARK   86  A    between atoms: _238  and  _240
REMARK   87  A    between atoms: _240  and  _241
REMARK   88  A    between atoms: _240  and  _243
REMARK   89  A    between atoms: _243  and  _244
REMARK   90  A    between atoms: _247  and  _249
REMARK   91  A    between atoms: _249  and  _250
REMARK   92  A    between atoms: _249  and  _252
REMARK   93  A    between atoms: _254  and  _256
REMARK   94  A    between atoms: _256  and  _257
REMARK   95  A    between atoms: _256  and  _259
REMARK   96  A    between atoms: _262  and  _264
REMARK   97  A    between atoms: _264  and  _265
REMARK   98  A    between atoms: _264  and  _267
REMARK   99  A    between atoms: _267  and  _268
REMARK  100  A    between atoms: _271  and  _273
REMARK  101  A    between atoms: _273  and  _274
REMARK  102  A    between atoms: _273  and  _276
REMARK  103  A    between atoms: _276  and  _277
REMARK  104  A    between atoms: _280  and  _282
REMARK  105  A    between atoms: _282  and  _283
REMARK  106  A    between atoms: _282  and  _285
REMARK  107  A    between atoms: _285  and  _286
REMARK  108  A    between atoms: _290  and  MN_382
REMARK  109  A    between atoms: _291  and  _293
REMARK  110  A    between atoms: _293  and  _294
REMARK  111  A    between atoms: _293  and  _296
REMARK  112  A    between atoms: _298  and  _300
REMARK  113  A    between atoms: _300  and  _301
REMARK  114  A    between atoms: _300  and  _303
REMARK  115  A    between atoms: _303  and  _304
REMARK  116  A    between atoms: _307  and  _309
REMARK  117  A    between atoms: _309  and  _310
REMARK  118  A    between atoms: _309  and  _312
REMARK  119  A    between atoms: _312  and  _313
REMARK  120  A    between atoms: _316  and  _318
REMARK  121  A    between atoms: _318  and  _319
REMARK  122  A    between atoms: _318  and  _321
REMARK  123  A    between atoms: _321  and  _322
REMARK  124  A    between atoms: _322  and  _323
REMARK  125  A    between atoms: _323  and  _324
REMARK  126  A    between atoms: _333  and  _335
REMARK  127  A    between atoms: _335  and  _336
REMARK  128  A    between atoms: _339  and  _341
REMARK  129  A    between atoms: _341  and  _342
REMARK  130  A    between atoms: _341  and  _344
REMARK  131  A    between atoms: _347  and  _349
REMARK  132  A    between atoms: _349  and  _350
REMARK  133  A    between atoms: _349  and  _352
REMARK  134  A    between atoms: _352  and  _353
REMARK  135  A    between atoms: _356  and  _358
REMARK  136  A    between atoms: _358  and  _359
REMARK  137  A    between atoms: _358  and  _361
REMARK  138  A    between atoms: _361  and  _362
REMARK  139  A    between atoms: _365  and  _367
REMARK  140  A    between atoms: _367  and  _368
REMARK  141  A    between atoms: _367  and  _370
REMARK  142  A    between atoms: _370  and  _371
REMARK  143  A    between atoms: _371  and  _372
REMARK  144  A    between atoms: _372  and  _373
REMARK                            x       y       z     vdW  Elec       q    Type
REMARK                         _______ _______ _______ _____ _____    ______ ____
ROOT
ATOM      1  NE  ARG A   1      20.117   1.543   8.254  0.00  0.00    +0.330 N 
ATOM      2  HE  ARG A   1      20.365   2.091   9.102  0.00  0.00    +0.000 HD
ATOM      3  CZ  ARG A   1      20.402   2.075   7.070  0.00  0.00    +0.000 C 
ATOM      4  NH2 ARG A   1      20.982   3.247   7.018  0.00  0.00    +0.330 N 
ATOM      5 HH21 ARG A   1      21.215   3.751   7.897  0.00  0.00    +0.000 HD
ATOM      6 HH22 ARG A   1      21.210   3.674   6.098  0.00  0.00    +0.000 HD
ATOM      7  NH1 ARG A   1      20.088   1.447   5.942  0.00  0.00    +0.330 N 
ATOM      8 HH11 ARG A   1      19.611   0.523   5.976  0.00  0.00    +0.000 HD
ATOM      9 HH12 ARG A   1      20.319   1.879   5.025  0.00  0.00    +0.000 HD
ENDROOT
BRANCH   1  10
ATOM     10  CD  ARG A   1      19.476   0.233   8.450  0.00  0.00    +0.000 C 
BRANCH  10  11
ATOM     11  CG  ARG A   1      18.844   0.115   9.827  0.00  0.00    +0.000 C 
BRANCH  11  12
ATOM     12  CB  ARG A   1      19.909   0.076  10.915  0.00  0.00    +0.000 C 
BRANCH  12  13
ATOM     13  CA  ARG A   1      19.332   0.139  12.333  0.00  0.00    +0.000 C 
BRANCH  13  14
ATOM     14  N   ARG A   1      18.817   1.488  12.591  0.00  0.00    +0.000 NA
ATOM     15  H   ARG A   1      19.471   2.241  12.887  0.00  0.00    +0.000 HD
ENDBRANCH  13  14
BRANCH  13  16
ATOM     16  C   ARG A   1      20.389  -0.282  13.359  0.00  0.00    +0.000 C 
ATOM     17  O   ARG A   1      20.898   0.531  14.096  0.00  0.00    +0.000 OA
ENDBRANCH  13  16
ENDBRANCH  12  13
ENDBRANCH  11  12
ENDBRANCH  10  11
ENDBRANCH   1  10
TORSDOF 6
