REMARK  Name = ../refined-set-2016/2v25/2v25_pocket.pdb
REMARK  147 active torsions:
REMARK  status: ('A' for Active; 'I' for Inactive)
REMARK    1  A    between atoms: _1  and  _3
REMARK    2  A    between atoms: _3  and  _4
REMARK    3  A    between atoms: _3  and  _6
REMARK    4  A    between atoms: _6  and  _7
REMARK    5  A    between atoms: _7  and  _8
REMARK    6  A    between atoms: _8  and  _9
REMARK    7  A    between atoms: _9  and  _10
REMARK    8  A    between atoms: _14  and  _16
REMARK    9  A    between atoms: _16  and  _17
REMARK   10  A    between atoms: _16  and  _19
REMARK   11  A    between atoms: _19  and  _20
REMARK   12  A    between atoms: _23  and  _25
REMARK   13  A    between atoms: _25  and  _26
REMARK   14  A    between atoms: _25  and  _28
REMARK   15  A    between atoms: _31  and  _33
REMARK   16  A    between atoms: _33  and  _34
REMARK   17  A    between atoms: _33  and  _36
REMARK   18  A    between atoms: _36  and  _37
REMARK   19  A    between atoms: _37  and  _38
REMARK   20  A    between atoms: _41  and  _43
REMARK   21  A    between atoms: _43  and  _44
REMARK   22  A    between atoms: _43  and  _46
REMARK   23  A    between atoms: _49  and  _51
REMARK   24  A    between atoms: _51  and  _52
REMARK   25  A    between atoms: _51  and  _54
REMARK   26  A    between atoms: _54  and  _55
REMARK   27  A    between atoms: _60  and  _62
REMARK   28  A    between atoms: _62  and  _63
REMARK   29  A    between atoms: _66  and  _68
REMARK   30  A    between atoms: _68  and  _69
REMARK   31  A    between atoms: _68  and  _71
REMARK   32  A    between atoms: _71  and  _72
REMARK   33  A    between atoms: _72  and  _73
REMARK   34  A    between atoms: _73  and  _74
REMARK   35  A    between atoms: _74  and  _75
REMARK   36  A    between atoms: _79  and  _81
REMARK   37  A    between atoms: _81  and  _82
REMARK   38  A    between atoms: _81  and  _84
REMARK   39  A    between atoms: _84  and  _85
REMARK   40  A    between atoms: _85  and  _86
REMARK   41  A    between atoms: _86  and  _87
REMARK   42  A    between atoms: _96  and  _98
REMARK   43  A    between atoms: _98  and  _99
REMARK   44  A    between atoms: _102  and  _104
REMARK   45  A    between atoms: _104  and  _105
REMARK   46  A    between atoms: _104  and  _107
REMARK   47  A    between atoms: _107  and  _108
REMARK   48  A    between atoms: _111  and  _113
REMARK   49  A    between atoms: _113  and  _114
REMARK   50  A    between atoms: _113  and  _116
REMARK   51  A    between atoms: _116  and  _117
REMARK   52  A    between atoms: _123  and  _125
REMARK   53  A    between atoms: _125  and  _126
REMARK   54  A    between atoms: _125  and  _128
REMARK   55  A    between atoms: _128  and  _129
REMARK   56  A    between atoms: _132  and  _134
REMARK   57  A    between atoms: _134  and  _135
REMARK   58  A    between atoms: _134  and  _137
REMARK   59  A    between atoms: _137  and  _138
REMARK   60  A    between atoms: _141  and  _143
REMARK   61  A    between atoms: _143  and  _144
REMARK   62  A    between atoms: _143  and  _146
REMARK   63  A    between atoms: _146  and  _147
REMARK   64  A    between atoms: _150  and  _152
REMARK   65  A    between atoms: _152  and  _153
REMARK   66  A    between atoms: _152  and  _155
REMARK   67  A    between atoms: _155  and  _156
REMARK   68  A    between atoms: _156  and  _157
REMARK   69  A    between atoms: _157  and  _158
REMARK   70  A    between atoms: _167  and  _169
REMARK   71  A    between atoms: _169  and  _170
REMARK   72  A    between atoms: _169  and  _172
REMARK   73  A    between atoms: _172  and  _173
REMARK   74  A    between atoms: _179  and  _181
REMARK   75  A    between atoms: _181  and  _182
REMARK   76  A    between atoms: _181  and  _184
REMARK   77  A    between atoms: _184  and  _185
REMARK   78  A    between atoms: _188  and  _190
REMARK   79  A    between atoms: _190  and  _191
REMARK   80  A    between atoms: _190  and  _193
REMARK   81  A    between atoms: _193  and  _194
REMARK   82  A    between atoms: _197  and  _199
REMARK   83  A    between atoms: _199  and  _200
REMARK   84  A    between atoms: _203  and  _205
REMARK   85  A    between atoms: _205  and  _206
REMARK   86  A    between atoms: _205  and  _208
REMARK   87  A    between atoms: _208  and  _209
REMARK   88  A    between atoms: _209  and  _210
REMARK   89  A    between atoms: _215  and  _217
REMARK   90  A    between atoms: _217  and  _218
REMARK   91  A    between atoms: _221  and  _223
REMARK   92  A    between atoms: _223  and  _224
REMARK   93  A    between atoms: _227  and  _229
REMARK   94  A    between atoms: _229  and  _230
REMARK   95  A    between atoms: _229  and  _232
REMARK   96  A    between atoms: _232  and  _233
REMARK   97  A    between atoms: _236  and  _238
REMARK   98  A    between atoms: _238  and  _239
REMARK   99  A    between atoms: _238  and  _241
REMARK  100  A    between atoms: _241  and  _242
REMARK  101  A    between atoms: _245  and  _247
REMARK  102  A    between atoms: _247  and  _248
REMARK  103  A    between atoms: _247  and  _250
REMARK  104  A    between atoms: _250  and  _251
REMARK  105  A    between atoms: _251  and  _252
REMARK  106  A    between atoms: _252  and  _253
REMARK  107  A    between atoms: _253  and  _254
REMARK  108  A    between atoms: _258  and  _260
REMARK  109  A    between atoms: _260  and  _261
REMARK  110  A    between atoms: _260  and  _263
REMARK  111  A    between atoms: _263  and  _264
REMARK  112  A    between atoms: _269  and  _270
REMARK  113  A    between atoms: _272  and  _274
REMARK  114  A    between atoms: _274  and  _275
REMARK  115  A    between atoms: _274  and  _277
REMARK  116  A    between atoms: _277  and  _278
REMARK  117  A    between atoms: _280  and  _282
REMARK  118  A    between atoms: _282  and  _283
REMARK  119  A    between atoms: _282  and  _285
REMARK  120  A    between atoms: _288  and  _290
REMARK  121  A    between atoms: _290  and  _291
REMARK  122  A    between atoms: _290  and  _293
REMARK  123  A    between atoms: _293  and  _294
REMARK  124  A    between atoms: _297  and  _299
REMARK  125  A    between atoms: _299  and  _300
REMARK  126  A    between atoms: _299  and  _302
REMARK  127  A    between atoms: _302  and  _303
REMARK  128  A    between atoms: _305  and  _307
REMARK  129  A    between atoms: _307  and  _308
REMARK  130  A    between atoms: _307  and  _310
REMARK  131  A    between atoms: _310  and  _311
REMARK  132  A    between atoms: _314  and  _316
REMARK  133  A    between atoms: _316  and  _317
REMARK  134  A    between atoms: _316  and  _319
REMARK  135  A    between atoms: _319  and  _320
REMARK  136  A    between atoms: _320  and  _321
REMARK  137  A    between atoms: _326  and  _328
REMARK  138  A    between atoms: _328  and  _329
REMARK  139  A    between atoms: _328  and  _331
REMARK  140  A    between atoms: _331  and  _332
REMARK  141  A    between atoms: _334  and  _336
REMARK  142  A    between atoms: _336  and  _337
REMARK  143  A    between atoms: _336  and  _339
REMARK  144  A    between atoms: _339  and  _340
REMARK  145  A    between atoms: _345  and  _346
REMARK  146  A    between atoms: _348  and  _350
REMARK  147  A    between atoms: _350  and  _351
REMARK                            x       y       z     vdW  Elec       q    Type
REMARK                         _______ _______ _______ _____ _____    ______ ____
ROOT
ATOM      1  CG  LYS A   1       6.947  36.048  52.793  0.00  0.00    -0.000 C 
ENDROOT
BRANCH   1   2
ATOM      2  CB  LYS A   1       7.125  36.047  51.283  0.00  0.00    +0.025 C 
BRANCH   2   3
ATOM      3  CA  LYS A   1       6.462  37.215  50.561  0.00  0.00    +0.133 C 
BRANCH   3   4
ATOM      4  N   LYS A   1       5.027  37.235  50.834  0.00  0.00    -0.239 NA
ATOM      5  H   LYS A   1       4.581  36.409  51.282  0.00  0.00    +0.142 HD
ENDBRANCH   3   4
BRANCH   3   6
ATOM      6  C   LYS A   1       6.697  37.086  49.058  0.00  0.00    +0.224 C 
ATOM      7  O   LYS A   1       5.778  36.810  48.276  0.00  0.00    -0.287 OA
ENDBRANCH   3   6
ENDBRANCH   2   3
ENDBRANCH   1   2
BRANCH   1   8
ATOM      8  CD  LYS A   1       7.640  37.214  53.417  0.00  0.00    -0.024 C 
BRANCH   8   9
ATOM      9  CE  LYS A   1       7.770  37.073  54.917  0.00  0.00    -0.086 C 
BRANCH   9  10
ATOM     10  NZ  LYS A   1       8.692  35.958  55.320  0.00  0.00    +0.380 N 
ATOM     11  HZ1 LYS A   1       8.742  35.909  56.358  0.00  0.00    -0.089 HD
ATOM     12  HZ2 LYS A   1       8.329  35.058  54.946  0.00  0.00    -0.089 HD
ATOM     13  HZ3 LYS A   1       9.641  36.138  54.934  0.00  0.00    -0.089 HD
ENDBRANCH   9  10
ENDBRANCH   8   9
ENDBRANCH   1   8
TORSDOF 7
REMARK  Name = ../refined-set-2016/2v25/2v25_pocket.pdb
REMARK  147 active torsions:
REMARK  status: ('A' for Active; 'I' for Inactive)
REMARK    1  A    between atoms: _1  and  _3
REMARK    2  A    between atoms: _3  and  _4
REMARK    3  A    between atoms: _3  and  _6
REMARK    4  A    between atoms: _6  and  _7
REMARK    5  A    between atoms: _7  and  _8
REMARK    6  A    between atoms: _8  and  _9
REMARK    7  A    between atoms: _9  and  _10
REMARK    8  A    between atoms: _14  and  _16
REMARK    9  A    between atoms: _16  and  _17
REMARK   10  A    between atoms: _16  and  _19
REMARK   11  A    between atoms: _19  and  _20
REMARK   12  A    between atoms: _23  and  _25
REMARK   13  A    between atoms: _25  and  _26
REMARK   14  A    between atoms: _25  and  _28
REMARK   15  A    between atoms: _31  and  _33
REMARK   16  A    between atoms: _33  and  _34
REMARK   17  A    between atoms: _33  and  _36
REMARK   18  A    between atoms: _36  and  _37
REMARK   19  A    between atoms: _37  and  _38
REMARK   20  A    between atoms: _41  and  _43
REMARK   21  A    between atoms: _43  and  _44
REMARK   22  A    between atoms: _43  and  _46
REMARK   23  A    between atoms: _49  and  _51
REMARK   24  A    between atoms: _51  and  _52
REMARK   25  A    between atoms: _51  and  _54
REMARK   26  A    between atoms: _54  and  _55
REMARK   27  A    between atoms: _60  and  _62
REMARK   28  A    between atoms: _62  and  _63
REMARK   29  A    between atoms: _66  and  _68
REMARK   30  A    between atoms: _68  and  _69
REMARK   31  A    between atoms: _68  and  _71
REMARK   32  A    between atoms: _71  and  _72
REMARK   33  A    between atoms: _72  and  _73
REMARK   34  A    between atoms: _73  and  _74
REMARK   35  A    between atoms: _74  and  _75
REMARK   36  A    between atoms: _79  and  _81
REMARK   37  A    between atoms: _81  and  _82
REMARK   38  A    between atoms: _81  and  _84
REMARK   39  A    between atoms: _84  and  _85
REMARK   40  A    between atoms: _85  and  _86
REMARK   41  A    between atoms: _86  and  _87
REMARK   42  A    between atoms: _96  and  _98
REMARK   43  A    between atoms: _98  and  _99
REMARK   44  A    between atoms: _102  and  _104
REMARK   45  A    between atoms: _104  and  _105
REMARK   46  A    between atoms: _104  and  _107
REMARK   47  A    between atoms: _107  and  _108
REMARK   48  A    between atoms: _111  and  _113
REMARK   49  A    between atoms: _113  and  _114
REMARK   50  A    between atoms: _113  and  _116
REMARK   51  A    between atoms: _116  and  _117
REMARK   52  A    between atoms: _123  and  _125
REMARK   53  A    between atoms: _125  and  _126
REMARK   54  A    between atoms: _125  and  _128
REMARK   55  A    between atoms: _128  and  _129
REMARK   56  A    between atoms: _132  and  _134
REMARK   57  A    between atoms: _134  and  _135
REMARK   58  A    between atoms: _134  and  _137
REMARK   59  A    between atoms: _137  and  _138
REMARK   60  A    between atoms: _141  and  _143
REMARK   61  A    between atoms: _143  and  _144
REMARK   62  A    between atoms: _143  and  _146
REMARK   63  A    between atoms: _146  and  _147
REMARK   64  A    between atoms: _150  and  _152
REMARK   65  A    between atoms: _152  and  _153
REMARK   66  A    between atoms: _152  and  _155
REMARK   67  A    between atoms: _155  and  _156
REMARK   68  A    between atoms: _156  and  _157
REMARK   69  A    between atoms: _157  and  _158
REMARK   70  A    between atoms: _167  and  _169
REMARK   71  A    between atoms: _169  and  _170
REMARK   72  A    between atoms: _169  and  _172
REMARK   73  A    between atoms: _172  and  _173
REMARK   74  A    between atoms: _179  and  _181
REMARK   75  A    between atoms: _181  and  _182
REMARK   76  A    between atoms: _181  and  _184
REMARK   77  A    between atoms: _184  and  _185
REMARK   78  A    between atoms: _188  and  _190
REMARK   79  A    between atoms: _190  and  _191
REMARK   80  A    between atoms: _190  and  _193
REMARK   81  A    between atoms: _193  and  _194
REMARK   82  A    between atoms: _197  and  _199
REMARK   83  A    between atoms: _199  and  _200
REMARK   84  A    between atoms: _203  and  _205
REMARK   85  A    between atoms: _205  and  _206
REMARK   86  A    between atoms: _205  and  _208
REMARK   87  A    between atoms: _208  and  _209
REMARK   88  A    between atoms: _209  and  _210
REMARK   89  A    between atoms: _215  and  _217
REMARK   90  A    between atoms: _217  and  _218
REMARK   91  A    between atoms: _221  and  _223
REMARK   92  A    between atoms: _223  and  _224
REMARK   93  A    between atoms: _227  and  _229
REMARK   94  A    between atoms: _229  and  _230
REMARK   95  A    between atoms: _229  and  _232
REMARK   96  A    between atoms: _232  and  _233
REMARK   97  A    between atoms: _236  and  _238
REMARK   98  A    between atoms: _238  and  _239
REMARK   99  A    between atoms: _238  and  _241
REMARK  100  A    between atoms: _241  and  _242
REMARK  101  A    between atoms: _245  and  _247
REMARK  102  A    between atoms: _247  and  _248
REMARK  103  A    between atoms: _247  and  _250
REMARK  104  A    between atoms: _250  and  _251
REMARK  105  A    between atoms: _251  and  _252
REMARK  106  A    between atoms: _252  and  _253
REMARK  107  A    between atoms: _253  and  _254
REMARK  108  A    between atoms: _258  and  _260
REMARK  109  A    between atoms: _260  and  _261
REMARK  110  A    between atoms: _260  and  _263
REMARK  111  A    between atoms: _263  and  _264
REMARK  112  A    between atoms: _269  and  _270
REMARK  113  A    between atoms: _272  and  _274
REMARK  114  A    between atoms: _274  and  _275
REMARK  115  A    between atoms: _274  and  _277
REMARK  116  A    between atoms: _277  and  _278
REMARK  117  A    between atoms: _280  and  _282
REMARK  118  A    between atoms: _282  and  _283
REMARK  119  A    between atoms: _282  and  _285
REMARK  120  A    between atoms: _288  and  _290
REMARK  121  A    between atoms: _290  and  _291
REMARK  122  A    between atoms: _290  and  _293
REMARK  123  A    between atoms: _293  and  _294
REMARK  124  A    between atoms: _297  and  _299
REMARK  125  A    between atoms: _299  and  _300
REMARK  126  A    between atoms: _299  and  _302
REMARK  127  A    between atoms: _302  and  _303
REMARK  128  A    between atoms: _305  and  _307
REMARK  129  A    between atoms: _307  and  _308
REMARK  130  A    between atoms: _307  and  _310
REMARK  131  A    between atoms: _310  and  _311
REMARK  132  A    between atoms: _314  and  _316
REMARK  133  A    between atoms: _316  and  _317
REMARK  134  A    between atoms: _316  and  _319
REMARK  135  A    between atoms: _319  and  _320
REMARK  136  A    between atoms: _320  and  _321
REMARK  137  A    between atoms: _326  and  _328
REMARK  138  A    between atoms: _328  and  _329
REMARK  139  A    between atoms: _328  and  _331
REMARK  140  A    between atoms: _331  and  _332
REMARK  141  A    between atoms: _334  and  _336
REMARK  142  A    between atoms: _336  and  _337
REMARK  143  A    between atoms: _336  and  _339
REMARK  144  A    between atoms: _339  and  _340
REMARK  145  A    between atoms: _345  and  _346
REMARK  146  A    between atoms: _348  and  _350
REMARK  147  A    between atoms: _350  and  _351
REMARK                            x       y       z     vdW  Elec       q    Type
REMARK                         _______ _______ _______ _____ _____    ______ ____
ROOT
ATOM      1  C   ASP A   1      11.161  33.379  48.631  0.00  0.00    +0.239 C 
ATOM      2  N   VAL A   2       9.953  32.865  48.873  0.00  0.00    -0.298 N 
ATOM      3  H   VAL A   2       9.106  33.384  48.564  0.00  0.00    +0.150 HD
ATOM      4  O   ASP A   1      12.193  32.750  48.848  0.00  0.00    -0.274 OA
ENDROOT
BRANCH   1   5
ATOM      5  CA  ASP A   1      11.230  34.798  48.064  0.00  0.00    +0.156 C 
BRANCH   5   6
ATOM      6  N   ASP A   1       9.964  35.536  48.083  0.00  0.00    -0.238 NA
ATOM      7  H   ASP A   1       9.413  35.562  48.965  0.00  0.00    +0.142 HD
ENDBRANCH   5   6
BRANCH   5   8
ATOM      8  CB  ASP A   1      12.302  35.597  48.819  0.00  0.00    +0.140 C 
BRANCH   8   9
ATOM      9  CG  ASP A   1      11.926  35.880  50.296  0.00  0.00    +0.367 C 
ATOM     10  OD2 ASP A   1      12.793  36.354  51.086  0.00  0.00    -0.246 OA
ATOM     11  OD1 ASP A   1      10.765  35.648  50.696  0.00  0.00    -0.246 OA
ENDBRANCH   8   9
ENDBRANCH   5   8
ENDBRANCH   1   5
BRANCH   2  12
ATOM     12  CA  VAL A   2       9.798  31.588  49.563  0.00  0.00    +0.137 C 
BRANCH  12  13
ATOM     13  CB  VAL A   2       8.836  31.714  50.778  0.00  0.00    +0.026 C 
ATOM     14  CG2 VAL A   2       9.217  32.912  51.662  0.00  0.00    +0.002 C 
ATOM     15  CG1 VAL A   2       8.848  30.418  51.601  0.00  0.00    +0.002 C 
ENDBRANCH  12  13
BRANCH  12  16
ATOM     16  C   VAL A   2       9.283  30.501  48.610  0.00  0.00    +0.227 C 
ATOM     17  O   VAL A   2       8.097  30.474  48.277  0.00  0.00    -0.286 OA
ENDBRANCH  12  16
ENDBRANCH   2  12
TORSDOF 7
REMARK  Name = ../refined-set-2016/2v25/2v25_pocket.pdb
REMARK  147 active torsions:
REMARK  status: ('A' for Active; 'I' for Inactive)
REMARK    1  A    between atoms: _1  and  _3
REMARK    2  A    between atoms: _3  and  _4
REMARK    3  A    between atoms: _3  and  _6
REMARK    4  A    between atoms: _6  and  _7
REMARK    5  A    between atoms: _7  and  _8
REMARK    6  A    between atoms: _8  and  _9
REMARK    7  A    between atoms: _9  and  _10
REMARK    8  A    between atoms: _14  and  _16
REMARK    9  A    between atoms: _16  and  _17
REMARK   10  A    between atoms: _16  and  _19
REMARK   11  A    between atoms: _19  and  _20
REMARK   12  A    between atoms: _23  and  _25
REMARK   13  A    between atoms: _25  and  _26
REMARK   14  A    between atoms: _25  and  _28
REMARK   15  A    between atoms: _31  and  _33
REMARK   16  A    between atoms: _33  and  _34
REMARK   17  A    between atoms: _33  and  _36
REMARK   18  A    between atoms: _36  and  _37
REMARK   19  A    between atoms: _37  and  _38
REMARK   20  A    between atoms: _41  and  _43
REMARK   21  A    between atoms: _43  and  _44
REMARK   22  A    between atoms: _43  and  _46
REMARK   23  A    between atoms: _49  and  _51
REMARK   24  A    between atoms: _51  and  _52
REMARK   25  A    between atoms: _51  and  _54
REMARK   26  A    between atoms: _54  and  _55
REMARK   27  A    between atoms: _60  and  _62
REMARK   28  A    between atoms: _62  and  _63
REMARK   29  A    between atoms: _66  and  _68
REMARK   30  A    between atoms: _68  and  _69
REMARK   31  A    between atoms: _68  and  _71
REMARK   32  A    between atoms: _71  and  _72
REMARK   33  A    between atoms: _72  and  _73
REMARK   34  A    between atoms: _73  and  _74
REMARK   35  A    between atoms: _74  and  _75
REMARK   36  A    between atoms: _79  and  _81
REMARK   37  A    between atoms: _81  and  _82
REMARK   38  A    between atoms: _81  and  _84
REMARK   39  A    between atoms: _84  and  _85
REMARK   40  A    between atoms: _85  and  _86
REMARK   41  A    between atoms: _86  and  _87
REMARK   42  A    between atoms: _96  and  _98
REMARK   43  A    between atoms: _98  and  _99
REMARK   44  A    between atoms: _102  and  _104
REMARK   45  A    between atoms: _104  and  _105
REMARK   46  A    between atoms: _104  and  _107
REMARK   47  A    between atoms: _107  and  _108
REMARK   48  A    between atoms: _111  and  _113
REMARK   49  A    between atoms: _113  and  _114
REMARK   50  A    between atoms: _113  and  _116
REMARK   51  A    between atoms: _116  and  _117
REMARK   52  A    between atoms: _123  and  _125
REMARK   53  A    between atoms: _125  and  _126
REMARK   54  A    between atoms: _125  and  _128
REMARK   55  A    between atoms: _128  and  _129
REMARK   56  A    between atoms: _132  and  _134
REMARK   57  A    between atoms: _134  and  _135
REMARK   58  A    between atoms: _134  and  _137
REMARK   59  A    between atoms: _137  and  _138
REMARK   60  A    between atoms: _141  and  _143
REMARK   61  A    between atoms: _143  and  _144
REMARK   62  A    between atoms: _143  and  _146
REMARK   63  A    between atoms: _146  and  _147
REMARK   64  A    between atoms: _150  and  _152
REMARK   65  A    between atoms: _152  and  _153
REMARK   66  A    between atoms: _152  and  _155
REMARK   67  A    between atoms: _155  and  _156
REMARK   68  A    between atoms: _156  and  _157
REMARK   69  A    between atoms: _157  and  _158
REMARK   70  A    between atoms: _167  and  _169
REMARK   71  A    between atoms: _169  and  _170
REMARK   72  A    between atoms: _169  and  _172
REMARK   73  A    between atoms: _172  and  _173
REMARK   74  A    between atoms: _179  and  _181
REMARK   75  A    between atoms: _181  and  _182
REMARK   76  A    between atoms: _181  and  _184
REMARK   77  A    between atoms: _184  and  _185
REMARK   78  A    between atoms: _188  and  _190
REMARK   79  A    between atoms: _190  and  _191
REMARK   80  A    between atoms: _190  and  _193
REMARK   81  A    between atoms: _193  and  _194
REMARK   82  A    between atoms: _197  and  _199
REMARK   83  A    between atoms: _199  and  _200
REMARK   84  A    between atoms: _203  and  _205
REMARK   85  A    between atoms: _205  and  _206
REMARK   86  A    between atoms: _205  and  _208
REMARK   87  A    between atoms: _208  and  _209
REMARK   88  A    between atoms: _209  and  _210
REMARK   89  A    between atoms: _215  and  _217
REMARK   90  A    between atoms: _217  and  _218
REMARK   91  A    between atoms: _221  and  _223
REMARK   92  A    between atoms: _223  and  _224
REMARK   93  A    between atoms: _227  and  _229
REMARK   94  A    between atoms: _229  and  _230
REMARK   95  A    between atoms: _229  and  _232
REMARK   96  A    between atoms: _232  and  _233
REMARK   97  A    between atoms: _236  and  _238
REMARK   98  A    between atoms: _238  and  _239
REMARK   99  A    between atoms: _238  and  _241
REMARK  100  A    between atoms: _241  and  _242
REMARK  101  A    between atoms: _245  and  _247
REMARK  102  A    between atoms: _247  and  _248
REMARK  103  A    between atoms: _247  and  _250
REMARK  104  A    between atoms: _250  and  _251
REMARK  105  A    between atoms: _251  and  _252
REMARK  106  A    between atoms: _252  and  _253
REMARK  107  A    between atoms: _253  and  _254
REMARK  108  A    between atoms: _258  and  _260
REMARK  109  A    between atoms: _260  and  _261
REMARK  110  A    between atoms: _260  and  _263
REMARK  111  A    between atoms: _263  and  _264
REMARK  112  A    between atoms: _269  and  _270
REMARK  113  A    between atoms: _272  and  _274
REMARK  114  A    between atoms: _274  and  _275
REMARK  115  A    between atoms: _274  and  _277
REMARK  116  A    between atoms: _277  and  _278
REMARK  117  A    between atoms: _280  and  _282
REMARK  118  A    between atoms: _282  and  _283
REMARK  119  A    between atoms: _282  and  _285
REMARK  120  A    between atoms: _288  and  _290
REMARK  121  A    between atoms: _290  and  _291
REMARK  122  A    between atoms: _290  and  _293
REMARK  123  A    between atoms: _293  and  _294
REMARK  124  A    between atoms: _297  and  _299
REMARK  125  A    between atoms: _299  and  _300
REMARK  126  A    between atoms: _299  and  _302
REMARK  127  A    between atoms: _302  and  _303
REMARK  128  A    between atoms: _305  and  _307
REMARK  129  A    between atoms: _307  and  _308
REMARK  130  A    between atoms: _307  and  _310
REMARK  131  A    between atoms: _310  and  _311
REMARK  132  A    between atoms: _314  and  _316
REMARK  133  A    between atoms: _316  and  _317
REMARK  134  A    between atoms: _316  and  _319
REMARK  135  A    between atoms: _319  and  _320
REMARK  136  A    between atoms: _320  and  _321
REMARK  137  A    between atoms: _326  and  _328
REMARK  138  A    between atoms: _328  and  _329
REMARK  139  A    between atoms: _328  and  _331
REMARK  140  A    between atoms: _331  and  _332
REMARK  141  A    between atoms: _334  and  _336
REMARK  142  A    between atoms: _336  and  _337
REMARK  143  A    between atoms: _336  and  _339
REMARK  144  A    between atoms: _339  and  _340
REMARK  145  A    between atoms: _345  and  _346
REMARK  146  A    between atoms: _348  and  _350
REMARK  147  A    between atoms: _350  and  _351
REMARK                            x       y       z     vdW  Elec       q    Type
REMARK                         _______ _______ _______ _____ _____    ______ ____
ROOT
ATOM      1  CA  GLU A   1       0.153  31.226  50.183  0.00  0.00    +0.134 C 
ENDROOT
BRANCH   1   2
ATOM      2  N   GLU A   1       0.733  30.094  49.468  0.00  0.00    -0.239 NA
ATOM      3  H   GLU A   1       1.766  30.013  49.384  0.00  0.00    +0.142 HD
ENDBRANCH   1   2
BRANCH   1   4
ATOM      4  C   GLU A   1      -0.628  32.122  49.239  0.00  0.00    +0.224 C 
ATOM      5  O   GLU A   1      -1.652  32.689  49.613  0.00  0.00    -0.287 OA
ENDBRANCH   1   4
BRANCH   1   6
ATOM      6  CB  GLU A   1       1.224  32.012  50.948  0.00  0.00    +0.037 C 
BRANCH   6   7
ATOM      7  CG  GLU A   1       1.604  31.317  52.246  0.00  0.00    +0.116 C 
BRANCH   7   8
ATOM      8  CD  GLU A   1       2.732  31.987  53.034  0.00  0.00    +0.365 C 
ATOM      9  OE2 GLU A   1       2.686  31.949  54.289  0.00  0.00    -0.246 OA
ATOM     10  OE1 GLU A   1       3.693  32.502  52.423  0.00  0.00    -0.246 OA
ENDBRANCH   7   8
ENDBRANCH   6   7
ENDBRANCH   1   6
TORSDOF 5
REMARK  Name = ../refined-set-2016/2v25/2v25_pocket.pdb
REMARK  147 active torsions:
REMARK  status: ('A' for Active; 'I' for Inactive)
REMARK    1  A    between atoms: _1  and  _3
REMARK    2  A    between atoms: _3  and  _4
REMARK    3  A    between atoms: _3  and  _6
REMARK    4  A    between atoms: _6  and  _7
REMARK    5  A    between atoms: _7  and  _8
REMARK    6  A    between atoms: _8  and  _9
REMARK    7  A    between atoms: _9  and  _10
REMARK    8  A    between atoms: _14  and  _16
REMARK    9  A    between atoms: _16  and  _17
REMARK   10  A    between atoms: _16  and  _19
REMARK   11  A    between atoms: _19  and  _20
REMARK   12  A    between atoms: _23  and  _25
REMARK   13  A    between atoms: _25  and  _26
REMARK   14  A    between atoms: _25  and  _28
REMARK   15  A    between atoms: _31  and  _33
REMARK   16  A    between atoms: _33  and  _34
REMARK   17  A    between atoms: _33  and  _36
REMARK   18  A    between atoms: _36  and  _37
REMARK   19  A    between atoms: _37  and  _38
REMARK   20  A    between atoms: _41  and  _43
REMARK   21  A    between atoms: _43  and  _44
REMARK   22  A    between atoms: _43  and  _46
REMARK   23  A    between atoms: _49  and  _51
REMARK   24  A    between atoms: _51  and  _52
REMARK   25  A    between atoms: _51  and  _54
REMARK   26  A    between atoms: _54  and  _55
REMARK   27  A    between atoms: _60  and  _62
REMARK   28  A    between atoms: _62  and  _63
REMARK   29  A    between atoms: _66  and  _68
REMARK   30  A    between atoms: _68  and  _69
REMARK   31  A    between atoms: _68  and  _71
REMARK   32  A    between atoms: _71  and  _72
REMARK   33  A    between atoms: _72  and  _73
REMARK   34  A    between atoms: _73  and  _74
REMARK   35  A    between atoms: _74  and  _75
REMARK   36  A    between atoms: _79  and  _81
REMARK   37  A    between atoms: _81  and  _82
REMARK   38  A    between atoms: _81  and  _84
REMARK   39  A    between atoms: _84  and  _85
REMARK   40  A    between atoms: _85  and  _86
REMARK   41  A    between atoms: _86  and  _87
REMARK   42  A    between atoms: _96  and  _98
REMARK   43  A    between atoms: _98  and  _99
REMARK   44  A    between atoms: _102  and  _104
REMARK   45  A    between atoms: _104  and  _105
REMARK   46  A    between atoms: _104  and  _107
REMARK   47  A    between atoms: _107  and  _108
REMARK   48  A    between atoms: _111  and  _113
REMARK   49  A    between atoms: _113  and  _114
REMARK   50  A    between atoms: _113  and  _116
REMARK   51  A    between atoms: _116  and  _117
REMARK   52  A    between atoms: _123  and  _125
REMARK   53  A    between atoms: _125  and  _126
REMARK   54  A    between atoms: _125  and  _128
REMARK   55  A    between atoms: _128  and  _129
REMARK   56  A    between atoms: _132  and  _134
REMARK   57  A    between atoms: _134  and  _135
REMARK   58  A    between atoms: _134  and  _137
REMARK   59  A    between atoms: _137  and  _138
REMARK   60  A    between atoms: _141  and  _143
REMARK   61  A    between atoms: _143  and  _144
REMARK   62  A    between atoms: _143  and  _146
REMARK   63  A    between atoms: _146  and  _147
REMARK   64  A    between atoms: _150  and  _152
REMARK   65  A    between atoms: _152  and  _153
REMARK   66  A    between atoms: _152  and  _155
REMARK   67  A    between atoms: _155  and  _156
REMARK   68  A    between atoms: _156  and  _157
REMARK   69  A    between atoms: _157  and  _158
REMARK   70  A    between atoms: _167  and  _169
REMARK   71  A    between atoms: _169  and  _170
REMARK   72  A    between atoms: _169  and  _172
REMARK   73  A    between atoms: _172  and  _173
REMARK   74  A    between atoms: _179  and  _181
REMARK   75  A    between atoms: _181  and  _182
REMARK   76  A    between atoms: _181  and  _184
REMARK   77  A    between atoms: _184  and  _185
REMARK   78  A    between atoms: _188  and  _190
REMARK   79  A    between atoms: _190  and  _191
REMARK   80  A    between atoms: _190  and  _193
REMARK   81  A    between atoms: _193  and  _194
REMARK   82  A    between atoms: _197  and  _199
REMARK   83  A    between atoms: _199  and  _200
REMARK   84  A    between atoms: _203  and  _205
REMARK   85  A    between atoms: _205  and  _206
REMARK   86  A    between atoms: _205  and  _208
REMARK   87  A    between atoms: _208  and  _209
REMARK   88  A    between atoms: _209  and  _210
REMARK   89  A    between atoms: _215  and  _217
REMARK   90  A    between atoms: _217  and  _218
REMARK   91  A    between atoms: _221  and  _223
REMARK   92  A    between atoms: _223  and  _224
REMARK   93  A    between atoms: _227  and  _229
REMARK   94  A    between atoms: _229  and  _230
REMARK   95  A    between atoms: _229  and  _232
REMARK   96  A    between atoms: _232  and  _233
REMARK   97  A    between atoms: _236  and  _238
REMARK   98  A    between atoms: _238  and  _239
REMARK   99  A    between atoms: _238  and  _241
REMARK  100  A    between atoms: _241  and  _242
REMARK  101  A    between atoms: _245  and  _247
REMARK  102  A    between atoms: _247  and  _248
REMARK  103  A    between atoms: _247  and  _250
REMARK  104  A    between atoms: _250  and  _251
REMARK  105  A    between atoms: _251  and  _252
REMARK  106  A    between atoms: _252  and  _253
REMARK  107  A    between atoms: _253  and  _254
REMARK  108  A    between atoms: _258  and  _260
REMARK  109  A    between atoms: _260  and  _261
REMARK  110  A    between atoms: _260  and  _263
REMARK  111  A    between atoms: _263  and  _264
REMARK  112  A    between atoms: _269  and  _270
REMARK  113  A    between atoms: _272  and  _274
REMARK  114  A    between atoms: _274  and  _275
REMARK  115  A    between atoms: _274  and  _277
REMARK  116  A    between atoms: _277  and  _278
REMARK  117  A    between atoms: _280  and  _282
REMARK  118  A    between atoms: _282  and  _283
REMARK  119  A    between atoms: _282  and  _285
REMARK  120  A    between atoms: _288  and  _290
REMARK  121  A    between atoms: _290  and  _291
REMARK  122  A    between atoms: _290  and  _293
REMARK  123  A    between atoms: _293  and  _294
REMARK  124  A    between atoms: _297  and  _299
REMARK  125  A    between atoms: _299  and  _300
REMARK  126  A    between atoms: _299  and  _302
REMARK  127  A    between atoms: _302  and  _303
REMARK  128  A    between atoms: _305  and  _307
REMARK  129  A    between atoms: _307  and  _308
REMARK  130  A    between atoms: _307  and  _310
REMARK  131  A    between atoms: _310  and  _311
REMARK  132  A    between atoms: _314  and  _316
REMARK  133  A    between atoms: _316  and  _317
REMARK  134  A    between atoms: _316  and  _319
REMARK  135  A    between atoms: _319  and  _320
REMARK  136  A    between atoms: _320  and  _321
REMARK  137  A    between atoms: _326  and  _328
REMARK  138  A    between atoms: _328  and  _329
REMARK  139  A    between atoms: _328  and  _331
REMARK  140  A    between atoms: _331  and  _332
REMARK  141  A    between atoms: _334  and  _336
REMARK  142  A    between atoms: _336  and  _337
REMARK  143  A    between atoms: _336  and  _339
REMARK  144  A    between atoms: _339  and  _340
REMARK  145  A    between atoms: _345  and  _346
REMARK  146  A    between atoms: _348  and  _350
REMARK  147  A    between atoms: _350  and  _351
REMARK                            x       y       z     vdW  Elec       q    Type
REMARK                         _______ _______ _______ _____ _____    ______ ____
ROOT
ATOM      1  C   ASN A   2       8.547  41.265  56.002  0.00  0.00    +0.241 C 
ATOM      2  N   ALA A   3       9.357  40.690  56.881  0.00  0.00    -0.297 N 
ATOM      3  H   ALA A   3      10.234  40.238  56.552  0.00  0.00    +0.150 HD
ATOM      4  O   ASN A   2       7.528  41.866  56.351  0.00  0.00    -0.273 OA
ENDROOT
BRANCH   2   5
ATOM      5  CA  ALA A   3       9.034  40.684  58.296  0.00  0.00    +0.149 C 
ATOM      6  CB  ALA A   3      10.041  39.802  59.093  0.00  0.00    +0.031 C 
BRANCH   5   7
ATOM      7  C   ALA A   3       8.978  42.114  58.856  0.00  0.00    +0.241 C 
ATOM      8  O   ALA A   3       8.207  42.408  59.762  0.00  0.00    -0.273 OA
ATOM      9  N   LYS A   4       9.782  43.005  58.295  0.00  0.00    -0.298 N 
ATOM     10  H   LYS A   4      10.390  42.710  57.505  0.00  0.00    +0.150 HD
BRANCH   9  11
ATOM     11  CA  LYS A   4       9.838  44.395  58.757  0.00  0.00    +0.137 C 
BRANCH  11  12
ATOM     12  C   LYS A   4       8.700  45.256  58.202  0.00  0.00    +0.227 C 
ATOM     13  O   LYS A   4       8.188  46.131  58.890  0.00  0.00    -0.286 OA
ENDBRANCH  11  12
BRANCH  11  14
ATOM     14  CB  LYS A   4      11.178  45.012  58.360  0.00  0.00    +0.028 C 
BRANCH  14  15
ATOM     15  CG  LYS A   4      11.468  46.374  58.947  0.00  0.00    -0.000 C 
BRANCH  15  16
ATOM     16  CD  LYS A   4      12.915  46.794  58.733  0.00  0.00    -0.024 C 
BRANCH  16  17
ATOM     17  CE  LYS A   4      13.212  48.050  59.527  0.00  0.00    -0.086 C 
BRANCH  17  18
ATOM     18  NZ  LYS A   4      14.619  48.500  59.365  0.00  0.00    +0.380 N 
ATOM     19  HZ1 LYS A   4      14.773  49.362  59.927  0.00  0.00    -0.089 HD
ATOM     20  HZ2 LYS A   4      15.261  47.751  59.694  0.00  0.00    -0.089 HD
ATOM     21  HZ3 LYS A   4      14.804  48.701  58.362  0.00  0.00    -0.089 HD
ENDBRANCH  17  18
ENDBRANCH  16  17
ENDBRANCH  15  16
ENDBRANCH  14  15
ENDBRANCH  11  14
ENDBRANCH   9  11
ENDBRANCH   5   7
ENDBRANCH   2   5
BRANCH   1  22
ATOM     22  CA  ASN A   2       8.878  41.129  54.523  0.00  0.00    +0.158 C 
BRANCH  22  24
ATOM     23  C   VAL A   1       7.310  41.472  52.723  0.00  0.00    +0.238 C 
ATOM     24  N   ASN A   2       7.979  41.966  53.750  0.00  0.00    -0.297 N 
ATOM     25  H   ASN A   2       7.860  42.967  54.007  0.00  0.00    +0.150 HD
ATOM     26  O   VAL A   1       7.540  40.354  52.246  0.00  0.00    -0.274 OA
BRANCH  23  27
ATOM     27  CA  VAL A   1       6.211  42.359  52.153  0.00  0.00    +0.145 C 
BRANCH  27  28
ATOM     28  CB  VAL A   1       5.013  42.349  53.113  0.00  0.00    +0.025 C 
ATOM     29  CG2 VAL A   1       4.538  40.915  53.373  0.00  0.00    +0.002 C 
ATOM     30  CG1 VAL A   1       3.880  43.188  52.541  0.00  0.00    +0.002 C 
ENDBRANCH  27  28
BRANCH  27  31
ATOM     31  N   VAL A   1       5.844  41.885  50.824  0.00  0.00    -0.238 NA
ATOM     32  H   VAL A   1       5.697  40.865  50.687  0.00  0.00    +0.142 HD
ENDBRANCH  27  31
ENDBRANCH  23  27
ENDBRANCH  22  24
BRANCH  22  33
ATOM     33  CB  ASN A   2      10.341  41.436  54.163  0.00  0.00    +0.114 C 
BRANCH  33  34
ATOM     34  CG  ASN A   2      10.778  42.811  54.585  0.00  0.00    +0.222 C 
ATOM     35  OD1 ASN A   2      10.260  43.374  55.523  0.00  0.00    -0.275 OA
ATOM     36  ND2 ASN A   2      11.776  43.350  53.894  0.00  0.00    -0.329 N 
ATOM     37 HD21 ASN A   2      12.140  44.289  54.153  0.00  0.00    +0.145 HD
ATOM     38 HD22 ASN A   2      12.194  42.833  53.094  0.00  0.00    +0.145 HD
ENDBRANCH  33  34
ENDBRANCH  22  33
ENDBRANCH   1  22
TORSDOF 16
REMARK  Name = ../refined-set-2016/2v25/2v25_pocket.pdb
REMARK  147 active torsions:
REMARK  status: ('A' for Active; 'I' for Inactive)
REMARK    1  A    between atoms: _1  and  _3
REMARK    2  A    between atoms: _3  and  _4
REMARK    3  A    between atoms: _3  and  _6
REMARK    4  A    between atoms: _6  and  _7
REMARK    5  A    between atoms: _7  and  _8
REMARK    6  A    between atoms: _8  and  _9
REMARK    7  A    between atoms: _9  and  _10
REMARK    8  A    between atoms: _14  and  _16
REMARK    9  A    between atoms: _16  and  _17
REMARK   10  A    between atoms: _16  and  _19
REMARK   11  A    between atoms: _19  and  _20
REMARK   12  A    between atoms: _23  and  _25
REMARK   13  A    between atoms: _25  and  _26
REMARK   14  A    between atoms: _25  and  _28
REMARK   15  A    between atoms: _31  and  _33
REMARK   16  A    between atoms: _33  and  _34
REMARK   17  A    between atoms: _33  and  _36
REMARK   18  A    between atoms: _36  and  _37
REMARK   19  A    between atoms: _37  and  _38
REMARK   20  A    between atoms: _41  and  _43
REMARK   21  A    between atoms: _43  and  _44
REMARK   22  A    between atoms: _43  and  _46
REMARK   23  A    between atoms: _49  and  _51
REMARK   24  A    between atoms: _51  and  _52
REMARK   25  A    between atoms: _51  and  _54
REMARK   26  A    between atoms: _54  and  _55
REMARK   27  A    between atoms: _60  and  _62
REMARK   28  A    between atoms: _62  and  _63
REMARK   29  A    between atoms: _66  and  _68
REMARK   30  A    between atoms: _68  and  _69
REMARK   31  A    between atoms: _68  and  _71
REMARK   32  A    between atoms: _71  and  _72
REMARK   33  A    between atoms: _72  and  _73
REMARK   34  A    between atoms: _73  and  _74
REMARK   35  A    between atoms: _74  and  _75
REMARK   36  A    between atoms: _79  and  _81
REMARK   37  A    between atoms: _81  and  _82
REMARK   38  A    between atoms: _81  and  _84
REMARK   39  A    between atoms: _84  and  _85
REMARK   40  A    between atoms: _85  and  _86
REMARK   41  A    between atoms: _86  and  _87
REMARK   42  A    between atoms: _96  and  _98
REMARK   43  A    between atoms: _98  and  _99
REMARK   44  A    between atoms: _102  and  _104
REMARK   45  A    between atoms: _104  and  _105
REMARK   46  A    between atoms: _104  and  _107
REMARK   47  A    between atoms: _107  and  _108
REMARK   48  A    between atoms: _111  and  _113
REMARK   49  A    between atoms: _113  and  _114
REMARK   50  A    between atoms: _113  and  _116
REMARK   51  A    between atoms: _116  and  _117
REMARK   52  A    between atoms: _123  and  _125
REMARK   53  A    between atoms: _125  and  _126
REMARK   54  A    between atoms: _125  and  _128
REMARK   55  A    between atoms: _128  and  _129
REMARK   56  A    between atoms: _132  and  _134
REMARK   57  A    between atoms: _134  and  _135
REMARK   58  A    between atoms: _134  and  _137
REMARK   59  A    between atoms: _137  and  _138
REMARK   60  A    between atoms: _141  and  _143
REMARK   61  A    between atoms: _143  and  _144
REMARK   62  A    between atoms: _143  and  _146
REMARK   63  A    between atoms: _146  and  _147
REMARK   64  A    between atoms: _150  and  _152
REMARK   65  A    between atoms: _152  and  _153
REMARK   66  A    between atoms: _152  and  _155
REMARK   67  A    between atoms: _155  and  _156
REMARK   68  A    between atoms: _156  and  _157
REMARK   69  A    between atoms: _157  and  _158
REMARK   70  A    between atoms: _167  and  _169
REMARK   71  A    between atoms: _169  and  _170
REMARK   72  A    between atoms: _169  and  _172
REMARK   73  A    between atoms: _172  and  _173
REMARK   74  A    between atoms: _179  and  _181
REMARK   75  A    between atoms: _181  and  _182
REMARK   76  A    between atoms: _181  and  _184
REMARK   77  A    between atoms: _184  and  _185
REMARK   78  A    between atoms: _188  and  _190
REMARK   79  A    between atoms: _190  and  _191
REMARK   80  A    between atoms: _190  and  _193
REMARK   81  A    between atoms: _193  and  _194
REMARK   82  A    between atoms: _197  and  _199
REMARK   83  A    between atoms: _199  and  _200
REMARK   84  A    between atoms: _203  and  _205
REMARK   85  A    between atoms: _205  and  _206
REMARK   86  A    between atoms: _205  and  _208
REMARK   87  A    between atoms: _208  and  _209
REMARK   88  A    between atoms: _209  and  _210
REMARK   89  A    between atoms: _215  and  _217
REMARK   90  A    between atoms: _217  and  _218
REMARK   91  A    between atoms: _221  and  _223
REMARK   92  A    between atoms: _223  and  _224
REMARK   93  A    between atoms: _227  and  _229
REMARK   94  A    between atoms: _229  and  _230
REMARK   95  A    between atoms: _229  and  _232
REMARK   96  A    between atoms: _232  and  _233
REMARK   97  A    between atoms: _236  and  _238
REMARK   98  A    between atoms: _238  and  _239
REMARK   99  A    between atoms: _238  and  _241
REMARK  100  A    between atoms: _241  and  _242
REMARK  101  A    between atoms: _245  and  _247
REMARK  102  A    between atoms: _247  and  _248
REMARK  103  A    between atoms: _247  and  _250
REMARK  104  A    between atoms: _250  and  _251
REMARK  105  A    between atoms: _251  and  _252
REMARK  106  A    between atoms: _252  and  _253
REMARK  107  A    between atoms: _253  and  _254
REMARK  108  A    between atoms: _258  and  _260
REMARK  109  A    between atoms: _260  and  _261
REMARK  110  A    between atoms: _260  and  _263
REMARK  111  A    between atoms: _263  and  _264
REMARK  112  A    between atoms: _269  and  _270
REMARK  113  A    between atoms: _272  and  _274
REMARK  114  A    between atoms: _274  and  _275
REMARK  115  A    between atoms: _274  and  _277
REMARK  116  A    between atoms: _277  and  _278
REMARK  117  A    between atoms: _280  and  _282
REMARK  118  A    between atoms: _282  and  _283
REMARK  119  A    between atoms: _282  and  _285
REMARK  120  A    between atoms: _288  and  _290
REMARK  121  A    between atoms: _290  and  _291
REMARK  122  A    between atoms: _290  and  _293
REMARK  123  A    between atoms: _293  and  _294
REMARK  124  A    between atoms: _297  and  _299
REMARK  125  A    between atoms: _299  and  _300
REMARK  126  A    between atoms: _299  and  _302
REMARK  127  A    between atoms: _302  and  _303
REMARK  128  A    between atoms: _305  and  _307
REMARK  129  A    between atoms: _307  and  _308
REMARK  130  A    between atoms: _307  and  _310
REMARK  131  A    between atoms: _310  and  _311
REMARK  132  A    between atoms: _314  and  _316
REMARK  133  A    between atoms: _316  and  _317
REMARK  134  A    between atoms: _316  and  _319
REMARK  135  A    between atoms: _319  and  _320
REMARK  136  A    between atoms: _320  and  _321
REMARK  137  A    between atoms: _326  and  _328
REMARK  138  A    between atoms: _328  and  _329
REMARK  139  A    between atoms: _328  and  _331
REMARK  140  A    between atoms: _331  and  _332
REMARK  141  A    between atoms: _334  and  _336
REMARK  142  A    between atoms: _336  and  _337
REMARK  143  A    between atoms: _336  and  _339
REMARK  144  A    between atoms: _339  and  _340
REMARK  145  A    between atoms: _345  and  _346
REMARK  146  A    between atoms: _348  and  _350
REMARK  147  A    between atoms: _350  and  _351
REMARK                            x       y       z     vdW  Elec       q    Type
REMARK                         _______ _______ _______ _____ _____    ______ ____
ROOT
ATOM      1  NE  ARG A   1       5.655  39.644  59.184  0.00  0.00    -0.265 N 
ATOM      2  HE  ARG A   1       5.684  40.294  59.996  0.00  0.00    +0.259 HD
ATOM      3  CZ  ARG A   1       6.206  38.447  59.339  0.00  0.00    +0.342 C 
ATOM      4  NH2 ARG A   1       6.813  38.162  60.476  0.00  0.00    -0.292 N 
ATOM      5 HH21 ARG A   1       6.855  38.871  61.235  0.00  0.00    +0.255 HD
ATOM      6 HH22 ARG A   1       7.250  37.228  60.612  0.00  0.00    +0.255 HD
ATOM      7  NH1 ARG A   1       6.157  37.536  58.381  0.00  0.00    -0.292 N 
ATOM      8 HH11 ARG A   1       6.596  36.605  58.526  0.00  0.00    +0.255 HD
ATOM      9 HH12 ARG A   1       5.679  37.751  57.483  0.00  0.00    +0.255 HD
ENDROOT
BRANCH   1  10
ATOM     10  CD  ARG A   1       5.013  40.119  57.968  0.00  0.00    +0.174 C 
BRANCH  10  11
ATOM     11  CG  ARG A   1       4.801  41.622  58.084  0.00  0.00    +0.045 C 
BRANCH  11  12
ATOM     12  CB  ARG A   1       4.274  42.204  56.809  0.00  0.00    +0.029 C 
BRANCH  12  13
ATOM     13  CA  ARG A   1       4.312  43.723  56.706  0.00  0.00    +0.133 C 
BRANCH  13  14
ATOM     14  N   ARG A   1       5.678  44.221  56.742  0.00  0.00    -0.239 NA
ATOM     15  H   ARG A   1       6.456  43.591  57.023  0.00  0.00    +0.142 HD
ENDBRANCH  13  14
BRANCH  13  16
ATOM     16  C   ARG A   1       3.440  44.370  57.774  0.00  0.00    +0.224 C 
ATOM     17  O   ARG A   1       2.283  44.704  57.502  0.00  0.00    -0.287 OA
ENDBRANCH  13  16
ENDBRANCH  12  13
ENDBRANCH  11  12
ENDBRANCH  10  11
ENDBRANCH   1  10
TORSDOF 6
REMARK  Name = ../refined-set-2016/2v25/2v25_pocket.pdb
REMARK  147 active torsions:
REMARK  status: ('A' for Active; 'I' for Inactive)
REMARK    1  A    between atoms: _1  and  _3
REMARK    2  A    between atoms: _3  and  _4
REMARK    3  A    between atoms: _3  and  _6
REMARK    4  A    between atoms: _6  and  _7
REMARK    5  A    between atoms: _7  and  _8
REMARK    6  A    between atoms: _8  and  _9
REMARK    7  A    between atoms: _9  and  _10
REMARK    8  A    between atoms: _14  and  _16
REMARK    9  A    between atoms: _16  and  _17
REMARK   10  A    between atoms: _16  and  _19
REMARK   11  A    between atoms: _19  and  _20
REMARK   12  A    between atoms: _23  and  _25
REMARK   13  A    between atoms: _25  and  _26
REMARK   14  A    between atoms: _25  and  _28
REMARK   15  A    between atoms: _31  and  _33
REMARK   16  A    between atoms: _33  and  _34
REMARK   17  A    between atoms: _33  and  _36
REMARK   18  A    between atoms: _36  and  _37
REMARK   19  A    between atoms: _37  and  _38
REMARK   20  A    between atoms: _41  and  _43
REMARK   21  A    between atoms: _43  and  _44
REMARK   22  A    between atoms: _43  and  _46
REMARK   23  A    between atoms: _49  and  _51
REMARK   24  A    between atoms: _51  and  _52
REMARK   25  A    between atoms: _51  and  _54
REMARK   26  A    between atoms: _54  and  _55
REMARK   27  A    between atoms: _60  and  _62
REMARK   28  A    between atoms: _62  and  _63
REMARK   29  A    between atoms: _66  and  _68
REMARK   30  A    between atoms: _68  and  _69
REMARK   31  A    between atoms: _68  and  _71
REMARK   32  A    between atoms: _71  and  _72
REMARK   33  A    between atoms: _72  and  _73
REMARK   34  A    between atoms: _73  and  _74
REMARK   35  A    between atoms: _74  and  _75
REMARK   36  A    between atoms: _79  and  _81
REMARK   37  A    between atoms: _81  and  _82
REMARK   38  A    between atoms: _81  and  _84
REMARK   39  A    between atoms: _84  and  _85
REMARK   40  A    between atoms: _85  and  _86
REMARK   41  A    between atoms: _86  and  _87
REMARK   42  A    between atoms: _96  and  _98
REMARK   43  A    between atoms: _98  and  _99
REMARK   44  A    between atoms: _102  and  _104
REMARK   45  A    between atoms: _104  and  _105
REMARK   46  A    between atoms: _104  and  _107
REMARK   47  A    between atoms: _107  and  _108
REMARK   48  A    between atoms: _111  and  _113
REMARK   49  A    between atoms: _113  and  _114
REMARK   50  A    between atoms: _113  and  _116
REMARK   51  A    between atoms: _116  and  _117
REMARK   52  A    between atoms: _123  and  _125
REMARK   53  A    between atoms: _125  and  _126
REMARK   54  A    between atoms: _125  and  _128
REMARK   55  A    between atoms: _128  and  _129
REMARK   56  A    between atoms: _132  and  _134
REMARK   57  A    between atoms: _134  and  _135
REMARK   58  A    between atoms: _134  and  _137
REMARK   59  A    between atoms: _137  and  _138
REMARK   60  A    between atoms: _141  and  _143
REMARK   61  A    between atoms: _143  and  _144
REMARK   62  A    between atoms: _143  and  _146
REMARK   63  A    between atoms: _146  and  _147
REMARK   64  A    between atoms: _150  and  _152
REMARK   65  A    between atoms: _152  and  _153
REMARK   66  A    between atoms: _152  and  _155
REMARK   67  A    between atoms: _155  and  _156
REMARK   68  A    between atoms: _156  and  _157
REMARK   69  A    between atoms: _157  and  _158
REMARK   70  A    between atoms: _167  and  _169
REMARK   71  A    between atoms: _169  and  _170
REMARK   72  A    between atoms: _169  and  _172
REMARK   73  A    between atoms: _172  and  _173
REMARK   74  A    between atoms: _179  and  _181
REMARK   75  A    between atoms: _181  and  _182
REMARK   76  A    between atoms: _181  and  _184
REMARK   77  A    between atoms: _184  and  _185
REMARK   78  A    between atoms: _188  and  _190
REMARK   79  A    between atoms: _190  and  _191
REMARK   80  A    between atoms: _190  and  _193
REMARK   81  A    between atoms: _193  and  _194
REMARK   82  A    between atoms: _197  and  _199
REMARK   83  A    between atoms: _199  and  _200
REMARK   84  A    between atoms: _203  and  _205
REMARK   85  A    between atoms: _205  and  _206
REMARK   86  A    between atoms: _205  and  _208
REMARK   87  A    between atoms: _208  and  _209
REMARK   88  A    between atoms: _209  and  _210
REMARK   89  A    between atoms: _215  and  _217
REMARK   90  A    between atoms: _217  and  _218
REMARK   91  A    between atoms: _221  and  _223
REMARK   92  A    between atoms: _223  and  _224
REMARK   93  A    between atoms: _227  and  _229
REMARK   94  A    between atoms: _229  and  _230
REMARK   95  A    between atoms: _229  and  _232
REMARK   96  A    between atoms: _232  and  _233
REMARK   97  A    between atoms: _236  and  _238
REMARK   98  A    between atoms: _238  and  _239
REMARK   99  A    between atoms: _238  and  _241
REMARK  100  A    between atoms: _241  and  _242
REMARK  101  A    between atoms: _245  and  _247
REMARK  102  A    between atoms: _247  and  _248
REMARK  103  A    between atoms: _247  and  _250
REMARK  104  A    between atoms: _250  and  _251
REMARK  105  A    between atoms: _251  and  _252
REMARK  106  A    between atoms: _252  and  _253
REMARK  107  A    between atoms: _253  and  _254
REMARK  108  A    between atoms: _258  and  _260
REMARK  109  A    between atoms: _260  and  _261
REMARK  110  A    between atoms: _260  and  _263
REMARK  111  A    between atoms: _263  and  _264
REMARK  112  A    between atoms: _269  and  _270
REMARK  113  A    between atoms: _272  and  _274
REMARK  114  A    between atoms: _274  and  _275
REMARK  115  A    between atoms: _274  and  _277
REMARK  116  A    between atoms: _277  and  _278
REMARK  117  A    between atoms: _280  and  _282
REMARK  118  A    between atoms: _282  and  _283
REMARK  119  A    between atoms: _282  and  _285
REMARK  120  A    between atoms: _288  and  _290
REMARK  121  A    between atoms: _290  and  _291
REMARK  122  A    between atoms: _290  and  _293
REMARK  123  A    between atoms: _293  and  _294
REMARK  124  A    between atoms: _297  and  _299
REMARK  125  A    between atoms: _299  and  _300
REMARK  126  A    between atoms: _299  and  _302
REMARK  127  A    between atoms: _302  and  _303
REMARK  128  A    between atoms: _305  and  _307
REMARK  129  A    between atoms: _307  and  _308
REMARK  130  A    between atoms: _307  and  _310
REMARK  131  A    between atoms: _310  and  _311
REMARK  132  A    between atoms: _314  and  _316
REMARK  133  A    between atoms: _316  and  _317
REMARK  134  A    between atoms: _316  and  _319
REMARK  135  A    between atoms: _319  and  _320
REMARK  136  A    between atoms: _320  and  _321
REMARK  137  A    between atoms: _326  and  _328
REMARK  138  A    between atoms: _328  and  _329
REMARK  139  A    between atoms: _328  and  _331
REMARK  140  A    between atoms: _331  and  _332
REMARK  141  A    between atoms: _334  and  _336
REMARK  142  A    between atoms: _336  and  _337
REMARK  143  A    between atoms: _336  and  _339
REMARK  144  A    between atoms: _339  and  _340
REMARK  145  A    between atoms: _345  and  _346
REMARK  146  A    between atoms: _348  and  _350
REMARK  147  A    between atoms: _350  and  _351
REMARK                            x       y       z     vdW  Elec       q    Type
REMARK                         _______ _______ _______ _____ _____    ______ ____
ROOT
ATOM      1  C   PHE A   3       3.301  34.421  60.986  0.00  0.00    +0.241 C 
ATOM      2  N   THR A   4       4.349  34.189  61.770  0.00  0.00    -0.295 N 
ATOM      3  H   THR A   4       5.249  34.668  61.567  0.00  0.00    +0.150 HD
ATOM      4  O   PHE A   3       2.173  33.975  61.232  0.00  0.00    -0.273 OA
ENDROOT
BRANCH   2   5
ATOM      5  CA  THR A   4       4.270  33.285  62.902  0.00  0.00    +0.176 C 
BRANCH   5   6
ATOM      6  C   THR A   4       3.362  33.826  63.985  0.00  0.00    +0.243 C 
ATOM      7  N   ILE A   5       2.446  32.978  64.443  0.00  0.00    -0.297 N 
ATOM      8  H   ILE A   5       2.365  32.040  64.001  0.00  0.00    +0.150 HD
ATOM      9  O   THR A   4       3.496  34.967  64.406  0.00  0.00    -0.273 OA
BRANCH   7  10
ATOM     10  CA  ILE A   5       1.548  33.318  65.547  0.00  0.00    +0.149 C 
BRANCH  10  11
ATOM     11  C   ILE A   5       2.317  33.240  66.852  0.00  0.00    +0.241 C 
ATOM     12  N   THR A   6       2.301  34.314  67.633  0.00  0.00    -0.296 N 
ATOM     13  H   THR A   6       1.875  35.191  67.270  0.00  0.00    +0.150 HD
ATOM     14  O   ILE A   5       2.937  32.215  67.142  0.00  0.00    -0.273 OA
BRANCH  12  15
ATOM     15  CA  THR A   6       2.857  34.310  68.976  0.00  0.00    +0.164 C 
BRANCH  15  16
ATOM     16  CB  THR A   6       4.229  34.975  69.045  0.00  0.00    +0.136 C 
ATOM     17  CG2 THR A   6       5.162  34.421  67.975  0.00  0.00    +0.034 C 
BRANCH  16  18
ATOM     18  OG1 THR A   6       4.107  36.399  68.915  0.00  0.00    -0.382 OA
ATOM     19  HG1 THR A   6       5.006  36.812  68.962  0.00  0.00    +0.210 HD
ENDBRANCH  16  18
ENDBRANCH  15  16
BRANCH  15  20
ATOM     20  C   THR A   6       1.917  35.089  69.890  0.00  0.00    +0.229 C 
ATOM     21  O   THR A   6       1.185  35.943  69.411  0.00  0.00    -0.286 OA
ENDBRANCH  15  20
ENDBRANCH  12  15
ENDBRANCH  10  11
BRANCH  10  22
ATOM     22  CB  ILE A   5       0.397  32.311  65.624  0.00  0.00    +0.027 C 
ATOM     23  CG2 ILE A   5      -0.484  32.611  66.828  0.00  0.00    +0.002 C 
BRANCH  22  24
ATOM     24  CG1 ILE A   5      -0.425  32.313  64.335  0.00  0.00    +0.002 C 
ATOM     25  CD1 ILE A   5      -1.286  31.069  64.155  0.00  0.00    +0.000 C 
ENDBRANCH  22  24
ENDBRANCH  10  22
ENDBRANCH   7  10
ENDBRANCH   5   6
BRANCH   5  26
ATOM     26  CB  THR A   4       5.657  33.006  63.487  0.00  0.00    +0.137 C 
ATOM     27  CG2 THR A   4       5.578  32.068  64.674  0.00  0.00    +0.034 C 
BRANCH  26  28
ATOM     28  OG1 THR A   4       6.455  32.399  62.468  0.00  0.00    -0.382 OA
ATOM     29  HG1 THR A   4       7.358  32.210  62.827  0.00  0.00    +0.210 HD
ENDBRANCH  26  28
ENDBRANCH   5  26
ENDBRANCH   2   5
BRANCH   1  30
ATOM     30  CA  PHE A   3       3.562  35.286  59.754  0.00  0.00    +0.153 C 
BRANCH  30  33
ATOM     31  C   THR A   2       4.799  33.899  58.186  0.00  0.00    +0.243 C 
ATOM     32  O   THR A   2       5.800  33.968  58.883  0.00  0.00    -0.273 OA
ATOM     33  N   PHE A   3       3.640  34.389  58.603  0.00  0.00    -0.297 N 
ATOM     34  H   PHE A   3       2.767  34.129  58.100  0.00  0.00    +0.150 HD
BRANCH  31  35
ATOM     35  CA  THR A   2       4.802  33.188  56.822  0.00  0.00    +0.176 C 
BRANCH  35  38
ATOM     36  C   ALA A   1       4.170  35.253  55.653  0.00  0.00    +0.238 C 
ATOM     37  O   ALA A   1       4.856  35.963  56.375  0.00  0.00    -0.274 OA
ATOM     38  N   THR A   2       4.104  33.936  55.784  0.00  0.00    -0.295 N 
ATOM     39  H   THR A   2       3.520  33.405  55.107  0.00  0.00    +0.150 HD
BRANCH  36  40
ATOM     40  CA  ALA A   1       3.325  35.868  54.548  0.00  0.00    +0.145 C 
ATOM     41  CB  ALA A   1       3.634  37.358  54.424  0.00  0.00    +0.028 C 
BRANCH  40  42
ATOM     42  N   ALA A   1       1.895  35.692  54.831  0.00  0.00    -0.238 NA
ATOM     43  H   ALA A   1       1.582  35.601  55.819  0.00  0.00    +0.142 HD
ENDBRANCH  40  42
ENDBRANCH  36  40
ENDBRANCH  35  38
BRANCH  35  44
ATOM     44  CB  THR A   2       6.248  32.805  56.365  0.00  0.00    +0.137 C 
ATOM     45  CG2 THR A   2       6.244  32.086  54.987  0.00  0.00    +0.034 C 
BRANCH  44  46
ATOM     46  OG1 THR A   2       7.049  33.973  56.261  0.00  0.00    -0.382 OA
ATOM     47  HG1 THR A   2       7.093  34.421  57.143  0.00  0.00    +0.210 HD
ENDBRANCH  44  46
ENDBRANCH  35  44
ENDBRANCH  31  35
ENDBRANCH  30  33
BRANCH  30  48
ATOM     48  CB  PHE A   3       2.448  36.312  59.530  0.00  0.00    +0.055 C 
BRANCH  48  49
ATOM     49  CG  PHE A   3       2.644  37.629  60.232  0.00  0.00    -0.020 A 
ATOM     50  CD2 PHE A   3       3.349  37.732  61.414  0.00  0.00    -0.004 A 
ATOM     51  CE2 PHE A   3       3.498  38.948  62.057  0.00  0.00    -0.000 A 
ATOM     52  CZ  PHE A   3       2.912  40.083  61.528  0.00  0.00    -0.000 A 
ATOM     53  CE1 PHE A   3       2.204  40.000  60.361  0.00  0.00    -0.000 A 
ATOM     54  CD1 PHE A   3       2.064  38.781  59.713  0.00  0.00    -0.004 A 
ENDBRANCH  48  49
ENDBRANCH  30  48
ENDBRANCH   1  30
TORSDOF 22
REMARK  Name = ../refined-set-2016/2v25/2v25_pocket.pdb
REMARK  147 active torsions:
REMARK  status: ('A' for Active; 'I' for Inactive)
REMARK    1  A    between atoms: _1  and  _3
REMARK    2  A    between atoms: _3  and  _4
REMARK    3  A    between atoms: _3  and  _6
REMARK    4  A    between atoms: _6  and  _7
REMARK    5  A    between atoms: _7  and  _8
REMARK    6  A    between atoms: _8  and  _9
REMARK    7  A    between atoms: _9  and  _10
REMARK    8  A    between atoms: _14  and  _16
REMARK    9  A    between atoms: _16  and  _17
REMARK   10  A    between atoms: _16  and  _19
REMARK   11  A    between atoms: _19  and  _20
REMARK   12  A    between atoms: _23  and  _25
REMARK   13  A    between atoms: _25  and  _26
REMARK   14  A    between atoms: _25  and  _28
REMARK   15  A    between atoms: _31  and  _33
REMARK   16  A    between atoms: _33  and  _34
REMARK   17  A    between atoms: _33  and  _36
REMARK   18  A    between atoms: _36  and  _37
REMARK   19  A    between atoms: _37  and  _38
REMARK   20  A    between atoms: _41  and  _43
REMARK   21  A    between atoms: _43  and  _44
REMARK   22  A    between atoms: _43  and  _46
REMARK   23  A    between atoms: _49  and  _51
REMARK   24  A    between atoms: _51  and  _52
REMARK   25  A    between atoms: _51  and  _54
REMARK   26  A    between atoms: _54  and  _55
REMARK   27  A    between atoms: _60  and  _62
REMARK   28  A    between atoms: _62  and  _63
REMARK   29  A    between atoms: _66  and  _68
REMARK   30  A    between atoms: _68  and  _69
REMARK   31  A    between atoms: _68  and  _71
REMARK   32  A    between atoms: _71  and  _72
REMARK   33  A    between atoms: _72  and  _73
REMARK   34  A    between atoms: _73  and  _74
REMARK   35  A    between atoms: _74  and  _75
REMARK   36  A    between atoms: _79  and  _81
REMARK   37  A    between atoms: _81  and  _82
REMARK   38  A    between atoms: _81  and  _84
REMARK   39  A    between atoms: _84  and  _85
REMARK   40  A    between atoms: _85  and  _86
REMARK   41  A    between atoms: _86  and  _87
REMARK   42  A    between atoms: _96  and  _98
REMARK   43  A    between atoms: _98  and  _99
REMARK   44  A    between atoms: _102  and  _104
REMARK   45  A    between atoms: _104  and  _105
REMARK   46  A    between atoms: _104  and  _107
REMARK   47  A    between atoms: _107  and  _108
REMARK   48  A    between atoms: _111  and  _113
REMARK   49  A    between atoms: _113  and  _114
REMARK   50  A    between atoms: _113  and  _116
REMARK   51  A    between atoms: _116  and  _117
REMARK   52  A    between atoms: _123  and  _125
REMARK   53  A    between atoms: _125  and  _126
REMARK   54  A    between atoms: _125  and  _128
REMARK   55  A    between atoms: _128  and  _129
REMARK   56  A    between atoms: _132  and  _134
REMARK   57  A    between atoms: _134  and  _135
REMARK   58  A    between atoms: _134  and  _137
REMARK   59  A    between atoms: _137  and  _138
REMARK   60  A    between atoms: _141  and  _143
REMARK   61  A    between atoms: _143  and  _144
REMARK   62  A    between atoms: _143  and  _146
REMARK   63  A    between atoms: _146  and  _147
REMARK   64  A    between atoms: _150  and  _152
REMARK   65  A    between atoms: _152  and  _153
REMARK   66  A    between atoms: _152  and  _155
REMARK   67  A    between atoms: _155  and  _156
REMARK   68  A    between atoms: _156  and  _157
REMARK   69  A    between atoms: _157  and  _158
REMARK   70  A    between atoms: _167  and  _169
REMARK   71  A    between atoms: _169  and  _170
REMARK   72  A    between atoms: _169  and  _172
REMARK   73  A    between atoms: _172  and  _173
REMARK   74  A    between atoms: _179  and  _181
REMARK   75  A    between atoms: _181  and  _182
REMARK   76  A    between atoms: _181  and  _184
REMARK   77  A    between atoms: _184  and  _185
REMARK   78  A    between atoms: _188  and  _190
REMARK   79  A    between atoms: _190  and  _191
REMARK   80  A    between atoms: _190  and  _193
REMARK   81  A    between atoms: _193  and  _194
REMARK   82  A    between atoms: _197  and  _199
REMARK   83  A    between atoms: _199  and  _200
REMARK   84  A    between atoms: _203  and  _205
REMARK   85  A    between atoms: _205  and  _206
REMARK   86  A    between atoms: _205  and  _208
REMARK   87  A    between atoms: _208  and  _209
REMARK   88  A    between atoms: _209  and  _210
REMARK   89  A    between atoms: _215  and  _217
REMARK   90  A    between atoms: _217  and  _218
REMARK   91  A    between atoms: _221  and  _223
REMARK   92  A    between atoms: _223  and  _224
REMARK   93  A    between atoms: _227  and  _229
REMARK   94  A    between atoms: _229  and  _230
REMARK   95  A    between atoms: _229  and  _232
REMARK   96  A    between atoms: _232  and  _233
REMARK   97  A    between atoms: _236  and  _238
REMARK   98  A    between atoms: _238  and  _239
REMARK   99  A    between atoms: _238  and  _241
REMARK  100  A    between atoms: _241  and  _242
REMARK  101  A    between atoms: _245  and  _247
REMARK  102  A    between atoms: _247  and  _248
REMARK  103  A    between atoms: _247  and  _250
REMARK  104  A    between atoms: _250  and  _251
REMARK  105  A    between atoms: _251  and  _252
REMARK  106  A    between atoms: _252  and  _253
REMARK  107  A    between atoms: _253  and  _254
REMARK  108  A    between atoms: _258  and  _260
REMARK  109  A    between atoms: _260  and  _261
REMARK  110  A    between atoms: _260  and  _263
REMARK  111  A    between atoms: _263  and  _264
REMARK  112  A    between atoms: _269  and  _270
REMARK  113  A    between atoms: _272  and  _274
REMARK  114  A    between atoms: _274  and  _275
REMARK  115  A    between atoms: _274  and  _277
REMARK  116  A    between atoms: _277  and  _278
REMARK  117  A    between atoms: _280  and  _282
REMARK  118  A    between atoms: _282  and  _283
REMARK  119  A    between atoms: _282  and  _285
REMARK  120  A    between atoms: _288  and  _290
REMARK  121  A    between atoms: _290  and  _291
REMARK  122  A    between atoms: _290  and  _293
REMARK  123  A    between atoms: _293  and  _294
REMARK  124  A    between atoms: _297  and  _299
REMARK  125  A    between atoms: _299  and  _300
REMARK  126  A    between atoms: _299  and  _302
REMARK  127  A    between atoms: _302  and  _303
REMARK  128  A    between atoms: _305  and  _307
REMARK  129  A    between atoms: _307  and  _308
REMARK  130  A    between atoms: _307  and  _310
REMARK  131  A    between atoms: _310  and  _311
REMARK  132  A    between atoms: _314  and  _316
REMARK  133  A    between atoms: _316  and  _317
REMARK  134  A    between atoms: _316  and  _319
REMARK  135  A    between atoms: _319  and  _320
REMARK  136  A    between atoms: _320  and  _321
REMARK  137  A    between atoms: _326  and  _328
REMARK  138  A    between atoms: _328  and  _329
REMARK  139  A    between atoms: _328  and  _331
REMARK  140  A    between atoms: _331  and  _332
REMARK  141  A    between atoms: _334  and  _336
REMARK  142  A    between atoms: _336  and  _337
REMARK  143  A    between atoms: _336  and  _339
REMARK  144  A    between atoms: _339  and  _340
REMARK  145  A    between atoms: _345  and  _346
REMARK  146  A    between atoms: _348  and  _350
REMARK  147  A    between atoms: _350  and  _351
REMARK                            x       y       z     vdW  Elec       q    Type
REMARK                         _______ _______ _______ _____ _____    ______ ____
ROOT
ATOM      1  NE  ARG A   1       5.682  38.307  65.286  0.00  0.00    -0.265 N 
ATOM      2  HE  ARG A   1       6.152  39.112  65.748  0.00  0.00    +0.259 HD
ATOM      3  CZ  ARG A   1       6.331  37.687  64.313  0.00  0.00    +0.342 C 
ATOM      4  NH2 ARG A   1       7.540  38.113  63.940  0.00  0.00    -0.292 N 
ATOM      5 HH21 ARG A   1       7.972  38.932  64.414  0.00  0.00    +0.255 HD
ATOM      6 HH22 ARG A   1       8.050  37.626  63.176  0.00  0.00    +0.255 HD
ATOM      7  NH1 ARG A   1       5.797  36.630  63.745  0.00  0.00    -0.292 N 
ATOM      8 HH11 ARG A   1       4.868  36.284  64.060  0.00  0.00    +0.255 HD
ATOM      9 HH12 ARG A   1       6.303  36.139  62.980  0.00  0.00    +0.255 HD
ENDROOT
BRANCH   1  10
ATOM     10  CD  ARG A   1       4.352  37.936  65.753  0.00  0.00    +0.174 C 
BRANCH  10  11
ATOM     11  CG  ARG A   1       3.824  38.906  66.785  0.00  0.00    +0.045 C 
BRANCH  11  12
ATOM     12  CB  ARG A   1       2.389  38.603  67.095  0.00  0.00    +0.029 C 
BRANCH  12  13
ATOM     13  CA  ARG A   1       1.866  39.387  68.284  0.00  0.00    +0.133 C 
BRANCH  13  14
ATOM     14  N   ARG A   1       2.377  38.826  69.521  0.00  0.00    -0.239 NA
ATOM     15  H   ARG A   1       2.766  37.861  69.527  0.00  0.00    +0.142 HD
ENDBRANCH  13  14
BRANCH  13  16
ATOM     16  C   ARG A   1       0.347  39.412  68.264  0.00  0.00    +0.224 C 
ATOM     17  O   ARG A   1      -0.249  40.292  67.640  0.00  0.00    -0.287 OA
ENDBRANCH  13  16
ENDBRANCH  12  13
ENDBRANCH  11  12
ENDBRANCH  10  11
ENDBRANCH   1  10
TORSDOF 6
REMARK  Name = ../refined-set-2016/2v25/2v25_pocket.pdb
REMARK  147 active torsions:
REMARK  status: ('A' for Active; 'I' for Inactive)
REMARK    1  A    between atoms: _1  and  _3
REMARK    2  A    between atoms: _3  and  _4
REMARK    3  A    between atoms: _3  and  _6
REMARK    4  A    between atoms: _6  and  _7
REMARK    5  A    between atoms: _7  and  _8
REMARK    6  A    between atoms: _8  and  _9
REMARK    7  A    between atoms: _9  and  _10
REMARK    8  A    between atoms: _14  and  _16
REMARK    9  A    between atoms: _16  and  _17
REMARK   10  A    between atoms: _16  and  _19
REMARK   11  A    between atoms: _19  and  _20
REMARK   12  A    between atoms: _23  and  _25
REMARK   13  A    between atoms: _25  and  _26
REMARK   14  A    between atoms: _25  and  _28
REMARK   15  A    between atoms: _31  and  _33
REMARK   16  A    between atoms: _33  and  _34
REMARK   17  A    between atoms: _33  and  _36
REMARK   18  A    between atoms: _36  and  _37
REMARK   19  A    between atoms: _37  and  _38
REMARK   20  A    between atoms: _41  and  _43
REMARK   21  A    between atoms: _43  and  _44
REMARK   22  A    between atoms: _43  and  _46
REMARK   23  A    between atoms: _49  and  _51
REMARK   24  A    between atoms: _51  and  _52
REMARK   25  A    between atoms: _51  and  _54
REMARK   26  A    between atoms: _54  and  _55
REMARK   27  A    between atoms: _60  and  _62
REMARK   28  A    between atoms: _62  and  _63
REMARK   29  A    between atoms: _66  and  _68
REMARK   30  A    between atoms: _68  and  _69
REMARK   31  A    between atoms: _68  and  _71
REMARK   32  A    between atoms: _71  and  _72
REMARK   33  A    between atoms: _72  and  _73
REMARK   34  A    between atoms: _73  and  _74
REMARK   35  A    between atoms: _74  and  _75
REMARK   36  A    between atoms: _79  and  _81
REMARK   37  A    between atoms: _81  and  _82
REMARK   38  A    between atoms: _81  and  _84
REMARK   39  A    between atoms: _84  and  _85
REMARK   40  A    between atoms: _85  and  _86
REMARK   41  A    between atoms: _86  and  _87
REMARK   42  A    between atoms: _96  and  _98
REMARK   43  A    between atoms: _98  and  _99
REMARK   44  A    between atoms: _102  and  _104
REMARK   45  A    between atoms: _104  and  _105
REMARK   46  A    between atoms: _104  and  _107
REMARK   47  A    between atoms: _107  and  _108
REMARK   48  A    between atoms: _111  and  _113
REMARK   49  A    between atoms: _113  and  _114
REMARK   50  A    between atoms: _113  and  _116
REMARK   51  A    between atoms: _116  and  _117
REMARK   52  A    between atoms: _123  and  _125
REMARK   53  A    between atoms: _125  and  _126
REMARK   54  A    between atoms: _125  and  _128
REMARK   55  A    between atoms: _128  and  _129
REMARK   56  A    between atoms: _132  and  _134
REMARK   57  A    between atoms: _134  and  _135
REMARK   58  A    between atoms: _134  and  _137
REMARK   59  A    between atoms: _137  and  _138
REMARK   60  A    between atoms: _141  and  _143
REMARK   61  A    between atoms: _143  and  _144
REMARK   62  A    between atoms: _143  and  _146
REMARK   63  A    between atoms: _146  and  _147
REMARK   64  A    between atoms: _150  and  _152
REMARK   65  A    between atoms: _152  and  _153
REMARK   66  A    between atoms: _152  and  _155
REMARK   67  A    between atoms: _155  and  _156
REMARK   68  A    between atoms: _156  and  _157
REMARK   69  A    between atoms: _157  and  _158
REMARK   70  A    between atoms: _167  and  _169
REMARK   71  A    between atoms: _169  and  _170
REMARK   72  A    between atoms: _169  and  _172
REMARK   73  A    between atoms: _172  and  _173
REMARK   74  A    between atoms: _179  and  _181
REMARK   75  A    between atoms: _181  and  _182
REMARK   76  A    between atoms: _181  and  _184
REMARK   77  A    between atoms: _184  and  _185
REMARK   78  A    between atoms: _188  and  _190
REMARK   79  A    between atoms: _190  and  _191
REMARK   80  A    between atoms: _190  and  _193
REMARK   81  A    between atoms: _193  and  _194
REMARK   82  A    between atoms: _197  and  _199
REMARK   83  A    between atoms: _199  and  _200
REMARK   84  A    between atoms: _203  and  _205
REMARK   85  A    between atoms: _205  and  _206
REMARK   86  A    between atoms: _205  and  _208
REMARK   87  A    between atoms: _208  and  _209
REMARK   88  A    between atoms: _209  and  _210
REMARK   89  A    between atoms: _215  and  _217
REMARK   90  A    between atoms: _217  and  _218
REMARK   91  A    between atoms: _221  and  _223
REMARK   92  A    between atoms: _223  and  _224
REMARK   93  A    between atoms: _227  and  _229
REMARK   94  A    between atoms: _229  and  _230
REMARK   95  A    between atoms: _229  and  _232
REMARK   96  A    between atoms: _232  and  _233
REMARK   97  A    between atoms: _236  and  _238
REMARK   98  A    between atoms: _238  and  _239
REMARK   99  A    between atoms: _238  and  _241
REMARK  100  A    between atoms: _241  and  _242
REMARK  101  A    between atoms: _245  and  _247
REMARK  102  A    between atoms: _247  and  _248
REMARK  103  A    between atoms: _247  and  _250
REMARK  104  A    between atoms: _250  and  _251
REMARK  105  A    between atoms: _251  and  _252
REMARK  106  A    between atoms: _252  and  _253
REMARK  107  A    between atoms: _253  and  _254
REMARK  108  A    between atoms: _258  and  _260
REMARK  109  A    between atoms: _260  and  _261
REMARK  110  A    between atoms: _260  and  _263
REMARK  111  A    between atoms: _263  and  _264
REMARK  112  A    between atoms: _269  and  _270
REMARK  113  A    between atoms: _272  and  _274
REMARK  114  A    between atoms: _274  and  _275
REMARK  115  A    between atoms: _274  and  _277
REMARK  116  A    between atoms: _277  and  _278
REMARK  117  A    between atoms: _280  and  _282
REMARK  118  A    between atoms: _282  and  _283
REMARK  119  A    between atoms: _282  and  _285
REMARK  120  A    between atoms: _288  and  _290
REMARK  121  A    between atoms: _290  and  _291
REMARK  122  A    between atoms: _290  and  _293
REMARK  123  A    between atoms: _293  and  _294
REMARK  124  A    between atoms: _297  and  _299
REMARK  125  A    between atoms: _299  and  _300
REMARK  126  A    between atoms: _299  and  _302
REMARK  127  A    between atoms: _302  and  _303
REMARK  128  A    between atoms: _305  and  _307
REMARK  129  A    between atoms: _307  and  _308
REMARK  130  A    between atoms: _307  and  _310
REMARK  131  A    between atoms: _310  and  _311
REMARK  132  A    between atoms: _314  and  _316
REMARK  133  A    between atoms: _316  and  _317
REMARK  134  A    between atoms: _316  and  _319
REMARK  135  A    between atoms: _319  and  _320
REMARK  136  A    between atoms: _320  and  _321
REMARK  137  A    between atoms: _326  and  _328
REMARK  138  A    between atoms: _328  and  _329
REMARK  139  A    between atoms: _328  and  _331
REMARK  140  A    between atoms: _331  and  _332
REMARK  141  A    between atoms: _334  and  _336
REMARK  142  A    between atoms: _336  and  _337
REMARK  143  A    between atoms: _336  and  _339
REMARK  144  A    between atoms: _339  and  _340
REMARK  145  A    between atoms: _345  and  _346
REMARK  146  A    between atoms: _348  and  _350
REMARK  147  A    between atoms: _350  and  _351
REMARK                            x       y       z     vdW  Elec       q    Type
REMARK                         _______ _______ _______ _____ _____    ______ ____
ROOT
ATOM      1  CB  PHE A   1      -3.208  35.278  64.266  0.00  0.00    +0.051 C 
ENDROOT
BRANCH   1   2
ATOM      2  CG  PHE A   1      -1.942  36.042  64.211  0.00  0.00    -0.020 A 
ATOM      3  CD2 PHE A   1      -1.765  37.165  65.001  0.00  0.00    -0.004 A 
ATOM      4  CE2 PHE A   1      -0.574  37.887  64.948  0.00  0.00    -0.000 A 
ATOM      5  CZ  PHE A   1       0.443  37.455  64.121  0.00  0.00    -0.000 A 
ATOM      6  CE1 PHE A   1       0.270  36.333  63.338  0.00  0.00    -0.000 A 
ATOM      7  CD1 PHE A   1      -0.897  35.631  63.388  0.00  0.00    -0.004 A 
ENDBRANCH   1   2
BRANCH   1   8
ATOM      8  CA  PHE A   1      -4.377  35.945  63.551  0.00  0.00    +0.137 C 
BRANCH   8   9
ATOM      9  N   PHE A   1      -4.892  37.096  64.300  0.00  0.00    -0.239 NA
ATOM     10  H   PHE A   1      -5.245  36.933  65.264  0.00  0.00    +0.142 HD
ENDBRANCH   8   9
BRANCH   8  11
ATOM     11  C   PHE A   1      -5.447  34.892  63.452  0.00  0.00    +0.224 C 
ATOM     12  O   PHE A   1      -6.069  34.573  64.454  0.00  0.00    -0.287 OA
ENDBRANCH   8  11
ENDBRANCH   1   8
TORSDOF 4
REMARK  Name = ../refined-set-2016/2v25/2v25_pocket.pdb
REMARK  147 active torsions:
REMARK  status: ('A' for Active; 'I' for Inactive)
REMARK    1  A    between atoms: _1  and  _3
REMARK    2  A    between atoms: _3  and  _4
REMARK    3  A    between atoms: _3  and  _6
REMARK    4  A    between atoms: _6  and  _7
REMARK    5  A    between atoms: _7  and  _8
REMARK    6  A    between atoms: _8  and  _9
REMARK    7  A    between atoms: _9  and  _10
REMARK    8  A    between atoms: _14  and  _16
REMARK    9  A    between atoms: _16  and  _17
REMARK   10  A    between atoms: _16  and  _19
REMARK   11  A    between atoms: _19  and  _20
REMARK   12  A    between atoms: _23  and  _25
REMARK   13  A    between atoms: _25  and  _26
REMARK   14  A    between atoms: _25  and  _28
REMARK   15  A    between atoms: _31  and  _33
REMARK   16  A    between atoms: _33  and  _34
REMARK   17  A    between atoms: _33  and  _36
REMARK   18  A    between atoms: _36  and  _37
REMARK   19  A    between atoms: _37  and  _38
REMARK   20  A    between atoms: _41  and  _43
REMARK   21  A    between atoms: _43  and  _44
REMARK   22  A    between atoms: _43  and  _46
REMARK   23  A    between atoms: _49  and  _51
REMARK   24  A    between atoms: _51  and  _52
REMARK   25  A    between atoms: _51  and  _54
REMARK   26  A    between atoms: _54  and  _55
REMARK   27  A    between atoms: _60  and  _62
REMARK   28  A    between atoms: _62  and  _63
REMARK   29  A    between atoms: _66  and  _68
REMARK   30  A    between atoms: _68  and  _69
REMARK   31  A    between atoms: _68  and  _71
REMARK   32  A    between atoms: _71  and  _72
REMARK   33  A    between atoms: _72  and  _73
REMARK   34  A    between atoms: _73  and  _74
REMARK   35  A    between atoms: _74  and  _75
REMARK   36  A    between atoms: _79  and  _81
REMARK   37  A    between atoms: _81  and  _82
REMARK   38  A    between atoms: _81  and  _84
REMARK   39  A    between atoms: _84  and  _85
REMARK   40  A    between atoms: _85  and  _86
REMARK   41  A    between atoms: _86  and  _87
REMARK   42  A    between atoms: _96  and  _98
REMARK   43  A    between atoms: _98  and  _99
REMARK   44  A    between atoms: _102  and  _104
REMARK   45  A    between atoms: _104  and  _105
REMARK   46  A    between atoms: _104  and  _107
REMARK   47  A    between atoms: _107  and  _108
REMARK   48  A    between atoms: _111  and  _113
REMARK   49  A    between atoms: _113  and  _114
REMARK   50  A    between atoms: _113  and  _116
REMARK   51  A    between atoms: _116  and  _117
REMARK   52  A    between atoms: _123  and  _125
REMARK   53  A    between atoms: _125  and  _126
REMARK   54  A    between atoms: _125  and  _128
REMARK   55  A    between atoms: _128  and  _129
REMARK   56  A    between atoms: _132  and  _134
REMARK   57  A    between atoms: _134  and  _135
REMARK   58  A    between atoms: _134  and  _137
REMARK   59  A    between atoms: _137  and  _138
REMARK   60  A    between atoms: _141  and  _143
REMARK   61  A    between atoms: _143  and  _144
REMARK   62  A    between atoms: _143  and  _146
REMARK   63  A    between atoms: _146  and  _147
REMARK   64  A    between atoms: _150  and  _152
REMARK   65  A    between atoms: _152  and  _153
REMARK   66  A    between atoms: _152  and  _155
REMARK   67  A    between atoms: _155  and  _156
REMARK   68  A    between atoms: _156  and  _157
REMARK   69  A    between atoms: _157  and  _158
REMARK   70  A    between atoms: _167  and  _169
REMARK   71  A    between atoms: _169  and  _170
REMARK   72  A    between atoms: _169  and  _172
REMARK   73  A    between atoms: _172  and  _173
REMARK   74  A    between atoms: _179  and  _181
REMARK   75  A    between atoms: _181  and  _182
REMARK   76  A    between atoms: _181  and  _184
REMARK   77  A    between atoms: _184  and  _185
REMARK   78  A    between atoms: _188  and  _190
REMARK   79  A    between atoms: _190  and  _191
REMARK   80  A    between atoms: _190  and  _193
REMARK   81  A    between atoms: _193  and  _194
REMARK   82  A    between atoms: _197  and  _199
REMARK   83  A    between atoms: _199  and  _200
REMARK   84  A    between atoms: _203  and  _205
REMARK   85  A    between atoms: _205  and  _206
REMARK   86  A    between atoms: _205  and  _208
REMARK   87  A    between atoms: _208  and  _209
REMARK   88  A    between atoms: _209  and  _210
REMARK   89  A    between atoms: _215  and  _217
REMARK   90  A    between atoms: _217  and  _218
REMARK   91  A    between atoms: _221  and  _223
REMARK   92  A    between atoms: _223  and  _224
REMARK   93  A    between atoms: _227  and  _229
REMARK   94  A    between atoms: _229  and  _230
REMARK   95  A    between atoms: _229  and  _232
REMARK   96  A    between atoms: _232  and  _233
REMARK   97  A    between atoms: _236  and  _238
REMARK   98  A    between atoms: _238  and  _239
REMARK   99  A    between atoms: _238  and  _241
REMARK  100  A    between atoms: _241  and  _242
REMARK  101  A    between atoms: _245  and  _247
REMARK  102  A    between atoms: _247  and  _248
REMARK  103  A    between atoms: _247  and  _250
REMARK  104  A    between atoms: _250  and  _251
REMARK  105  A    between atoms: _251  and  _252
REMARK  106  A    between atoms: _252  and  _253
REMARK  107  A    between atoms: _253  and  _254
REMARK  108  A    between atoms: _258  and  _260
REMARK  109  A    between atoms: _260  and  _261
REMARK  110  A    between atoms: _260  and  _263
REMARK  111  A    between atoms: _263  and  _264
REMARK  112  A    between atoms: _269  and  _270
REMARK  113  A    between atoms: _272  and  _274
REMARK  114  A    between atoms: _274  and  _275
REMARK  115  A    between atoms: _274  and  _277
REMARK  116  A    between atoms: _277  and  _278
REMARK  117  A    between atoms: _280  and  _282
REMARK  118  A    between atoms: _282  and  _283
REMARK  119  A    between atoms: _282  and  _285
REMARK  120  A    between atoms: _288  and  _290
REMARK  121  A    between atoms: _290  and  _291
REMARK  122  A    between atoms: _290  and  _293
REMARK  123  A    between atoms: _293  and  _294
REMARK  124  A    between atoms: _297  and  _299
REMARK  125  A    between atoms: _299  and  _300
REMARK  126  A    between atoms: _299  and  _302
REMARK  127  A    between atoms: _302  and  _303
REMARK  128  A    between atoms: _305  and  _307
REMARK  129  A    between atoms: _307  and  _308
REMARK  130  A    between atoms: _307  and  _310
REMARK  131  A    between atoms: _310  and  _311
REMARK  132  A    between atoms: _314  and  _316
REMARK  133  A    between atoms: _316  and  _317
REMARK  134  A    between atoms: _316  and  _319
REMARK  135  A    between atoms: _319  and  _320
REMARK  136  A    between atoms: _320  and  _321
REMARK  137  A    between atoms: _326  and  _328
REMARK  138  A    between atoms: _328  and  _329
REMARK  139  A    between atoms: _328  and  _331
REMARK  140  A    between atoms: _331  and  _332
REMARK  141  A    between atoms: _334  and  _336
REMARK  142  A    between atoms: _336  and  _337
REMARK  143  A    between atoms: _336  and  _339
REMARK  144  A    between atoms: _339  and  _340
REMARK  145  A    between atoms: _345  and  _346
REMARK  146  A    between atoms: _348  and  _350
REMARK  147  A    between atoms: _350  and  _351
REMARK                            x       y       z     vdW  Elec       q    Type
REMARK                         _______ _______ _______ _____ _____    ______ ____
ROOT
ATOM      1  CA  ASP A   1       7.278  25.036  59.585  0.00  0.00    +0.144 C 
ENDROOT
BRANCH   1   2
ATOM      2  N   ASP A   1       5.930  25.372  60.017  0.00  0.00    -0.239 NA
ATOM      3  H   ASP A   1       5.790  26.141  60.703  0.00  0.00    +0.142 HD
ENDBRANCH   1   2
BRANCH   1   4
ATOM      4  C   ASP A   1       8.129  25.060  60.844  0.00  0.00    +0.225 C 
ATOM      5  O   ASP A   1       7.589  24.948  61.943  0.00  0.00    -0.287 OA
ENDBRANCH   1   4
BRANCH   1   6
ATOM      6  CB  ASP A   1       7.723  26.008  58.489  0.00  0.00    +0.139 C 
BRANCH   6   7
ATOM      7  CG  ASP A   1       9.021  25.603  57.805  0.00  0.00    +0.367 C 
ATOM      8  OD2 ASP A   1       9.994  26.378  57.911  0.00  0.00    -0.246 OA
ATOM      9  OD1 ASP A   1       9.062  24.557  57.129  0.00  0.00    -0.246 OA
ENDBRANCH   6   7
ENDBRANCH   1   6
TORSDOF 4
REMARK  Name = ../refined-set-2016/2v25/2v25_pocket.pdb
REMARK  147 active torsions:
REMARK  status: ('A' for Active; 'I' for Inactive)
REMARK    1  A    between atoms: _1  and  _3
REMARK    2  A    between atoms: _3  and  _4
REMARK    3  A    between atoms: _3  and  _6
REMARK    4  A    between atoms: _6  and  _7
REMARK    5  A    between atoms: _7  and  _8
REMARK    6  A    between atoms: _8  and  _9
REMARK    7  A    between atoms: _9  and  _10
REMARK    8  A    between atoms: _14  and  _16
REMARK    9  A    between atoms: _16  and  _17
REMARK   10  A    between atoms: _16  and  _19
REMARK   11  A    between atoms: _19  and  _20
REMARK   12  A    between atoms: _23  and  _25
REMARK   13  A    between atoms: _25  and  _26
REMARK   14  A    between atoms: _25  and  _28
REMARK   15  A    between atoms: _31  and  _33
REMARK   16  A    between atoms: _33  and  _34
REMARK   17  A    between atoms: _33  and  _36
REMARK   18  A    between atoms: _36  and  _37
REMARK   19  A    between atoms: _37  and  _38
REMARK   20  A    between atoms: _41  and  _43
REMARK   21  A    between atoms: _43  and  _44
REMARK   22  A    between atoms: _43  and  _46
REMARK   23  A    between atoms: _49  and  _51
REMARK   24  A    between atoms: _51  and  _52
REMARK   25  A    between atoms: _51  and  _54
REMARK   26  A    between atoms: _54  and  _55
REMARK   27  A    between atoms: _60  and  _62
REMARK   28  A    between atoms: _62  and  _63
REMARK   29  A    between atoms: _66  and  _68
REMARK   30  A    between atoms: _68  and  _69
REMARK   31  A    between atoms: _68  and  _71
REMARK   32  A    between atoms: _71  and  _72
REMARK   33  A    between atoms: _72  and  _73
REMARK   34  A    between atoms: _73  and  _74
REMARK   35  A    between atoms: _74  and  _75
REMARK   36  A    between atoms: _79  and  _81
REMARK   37  A    between atoms: _81  and  _82
REMARK   38  A    between atoms: _81  and  _84
REMARK   39  A    between atoms: _84  and  _85
REMARK   40  A    between atoms: _85  and  _86
REMARK   41  A    between atoms: _86  and  _87
REMARK   42  A    between atoms: _96  and  _98
REMARK   43  A    between atoms: _98  and  _99
REMARK   44  A    between atoms: _102  and  _104
REMARK   45  A    between atoms: _104  and  _105
REMARK   46  A    between atoms: _104  and  _107
REMARK   47  A    between atoms: _107  and  _108
REMARK   48  A    between atoms: _111  and  _113
REMARK   49  A    between atoms: _113  and  _114
REMARK   50  A    between atoms: _113  and  _116
REMARK   51  A    between atoms: _116  and  _117
REMARK   52  A    between atoms: _123  and  _125
REMARK   53  A    between atoms: _125  and  _126
REMARK   54  A    between atoms: _125  and  _128
REMARK   55  A    between atoms: _128  and  _129
REMARK   56  A    between atoms: _132  and  _134
REMARK   57  A    between atoms: _134  and  _135
REMARK   58  A    between atoms: _134  and  _137
REMARK   59  A    between atoms: _137  and  _138
REMARK   60  A    between atoms: _141  and  _143
REMARK   61  A    between atoms: _143  and  _144
REMARK   62  A    between atoms: _143  and  _146
REMARK   63  A    between atoms: _146  and  _147
REMARK   64  A    between atoms: _150  and  _152
REMARK   65  A    between atoms: _152  and  _153
REMARK   66  A    between atoms: _152  and  _155
REMARK   67  A    between atoms: _155  and  _156
REMARK   68  A    between atoms: _156  and  _157
REMARK   69  A    between atoms: _157  and  _158
REMARK   70  A    between atoms: _167  and  _169
REMARK   71  A    between atoms: _169  and  _170
REMARK   72  A    between atoms: _169  and  _172
REMARK   73  A    between atoms: _172  and  _173
REMARK   74  A    between atoms: _179  and  _181
REMARK   75  A    between atoms: _181  and  _182
REMARK   76  A    between atoms: _181  and  _184
REMARK   77  A    between atoms: _184  and  _185
REMARK   78  A    between atoms: _188  and  _190
REMARK   79  A    between atoms: _190  and  _191
REMARK   80  A    between atoms: _190  and  _193
REMARK   81  A    between atoms: _193  and  _194
REMARK   82  A    between atoms: _197  and  _199
REMARK   83  A    between atoms: _199  and  _200
REMARK   84  A    between atoms: _203  and  _205
REMARK   85  A    between atoms: _205  and  _206
REMARK   86  A    between atoms: _205  and  _208
REMARK   87  A    between atoms: _208  and  _209
REMARK   88  A    between atoms: _209  and  _210
REMARK   89  A    between atoms: _215  and  _217
REMARK   90  A    between atoms: _217  and  _218
REMARK   91  A    between atoms: _221  and  _223
REMARK   92  A    between atoms: _223  and  _224
REMARK   93  A    between atoms: _227  and  _229
REMARK   94  A    between atoms: _229  and  _230
REMARK   95  A    between atoms: _229  and  _232
REMARK   96  A    between atoms: _232  and  _233
REMARK   97  A    between atoms: _236  and  _238
REMARK   98  A    between atoms: _238  and  _239
REMARK   99  A    between atoms: _238  and  _241
REMARK  100  A    between atoms: _241  and  _242
REMARK  101  A    between atoms: _245  and  _247
REMARK  102  A    between atoms: _247  and  _248
REMARK  103  A    between atoms: _247  and  _250
REMARK  104  A    between atoms: _250  and  _251
REMARK  105  A    between atoms: _251  and  _252
REMARK  106  A    between atoms: _252  and  _253
REMARK  107  A    between atoms: _253  and  _254
REMARK  108  A    between atoms: _258  and  _260
REMARK  109  A    between atoms: _260  and  _261
REMARK  110  A    between atoms: _260  and  _263
REMARK  111  A    between atoms: _263  and  _264
REMARK  112  A    between atoms: _269  and  _270
REMARK  113  A    between atoms: _272  and  _274
REMARK  114  A    between atoms: _274  and  _275
REMARK  115  A    between atoms: _274  and  _277
REMARK  116  A    between atoms: _277  and  _278
REMARK  117  A    between atoms: _280  and  _282
REMARK  118  A    between atoms: _282  and  _283
REMARK  119  A    between atoms: _282  and  _285
REMARK  120  A    between atoms: _288  and  _290
REMARK  121  A    between atoms: _290  and  _291
REMARK  122  A    between atoms: _290  and  _293
REMARK  123  A    between atoms: _293  and  _294
REMARK  124  A    between atoms: _297  and  _299
REMARK  125  A    between atoms: _299  and  _300
REMARK  126  A    between atoms: _299  and  _302
REMARK  127  A    between atoms: _302  and  _303
REMARK  128  A    between atoms: _305  and  _307
REMARK  129  A    between atoms: _307  and  _308
REMARK  130  A    between atoms: _307  and  _310
REMARK  131  A    between atoms: _310  and  _311
REMARK  132  A    between atoms: _314  and  _316
REMARK  133  A    between atoms: _316  and  _317
REMARK  134  A    between atoms: _316  and  _319
REMARK  135  A    between atoms: _319  and  _320
REMARK  136  A    between atoms: _320  and  _321
REMARK  137  A    between atoms: _326  and  _328
REMARK  138  A    between atoms: _328  and  _329
REMARK  139  A    between atoms: _328  and  _331
REMARK  140  A    between atoms: _331  and  _332
REMARK  141  A    between atoms: _334  and  _336
REMARK  142  A    between atoms: _336  and  _337
REMARK  143  A    between atoms: _336  and  _339
REMARK  144  A    between atoms: _339  and  _340
REMARK  145  A    between atoms: _345  and  _346
REMARK  146  A    between atoms: _348  and  _350
REMARK  147  A    between atoms: _350  and  _351
REMARK                            x       y       z     vdW  Elec       q    Type
REMARK                         _______ _______ _______ _____ _____    ______ ____
ROOT
ATOM      1  CA  ILE A   1      13.398  27.263  62.316  0.00  0.00    +0.133 C 
ENDROOT
BRANCH   1   2
ATOM      2  N   ILE A   1      12.194  26.471  62.509  0.00  0.00    -0.239 NA
ATOM      3  H   ILE A   1      11.822  26.350  63.473  0.00  0.00    +0.142 HD
ENDBRANCH   1   2
BRANCH   1   4
ATOM      4  CB  ILE A   1      13.654  28.140  63.545  0.00  0.00    +0.023 C 
ATOM      5  CG2 ILE A   1      15.010  28.822  63.449  0.00  0.00    +0.002 C 
BRANCH   4   6
ATOM      6  CG1 ILE A   1      12.557  29.206  63.663  0.00  0.00    +0.002 C 
ATOM      7  CD1 ILE A   1      12.492  29.901  65.009  0.00  0.00    +0.000 C 
ENDBRANCH   4   6
ENDBRANCH   1   4
BRANCH   1   8
ATOM      8  C   ILE A   1      14.586  26.356  62.047  0.00  0.00    +0.224 C 
ATOM      9  O   ILE A   1      14.691  25.270  62.619  0.00  0.00    -0.287 OA
ENDBRANCH   1   8
TORSDOF 4
REMARK  Name = ../refined-set-2016/2v25/2v25_pocket.pdb
REMARK  147 active torsions:
REMARK  status: ('A' for Active; 'I' for Inactive)
REMARK    1  A    between atoms: _1  and  _3
REMARK    2  A    between atoms: _3  and  _4
REMARK    3  A    between atoms: _3  and  _6
REMARK    4  A    between atoms: _6  and  _7
REMARK    5  A    between atoms: _7  and  _8
REMARK    6  A    between atoms: _8  and  _9
REMARK    7  A    between atoms: _9  and  _10
REMARK    8  A    between atoms: _14  and  _16
REMARK    9  A    between atoms: _16  and  _17
REMARK   10  A    between atoms: _16  and  _19
REMARK   11  A    between atoms: _19  and  _20
REMARK   12  A    between atoms: _23  and  _25
REMARK   13  A    between atoms: _25  and  _26
REMARK   14  A    between atoms: _25  and  _28
REMARK   15  A    between atoms: _31  and  _33
REMARK   16  A    between atoms: _33  and  _34
REMARK   17  A    between atoms: _33  and  _36
REMARK   18  A    between atoms: _36  and  _37
REMARK   19  A    between atoms: _37  and  _38
REMARK   20  A    between atoms: _41  and  _43
REMARK   21  A    between atoms: _43  and  _44
REMARK   22  A    between atoms: _43  and  _46
REMARK   23  A    between atoms: _49  and  _51
REMARK   24  A    between atoms: _51  and  _52
REMARK   25  A    between atoms: _51  and  _54
REMARK   26  A    between atoms: _54  and  _55
REMARK   27  A    between atoms: _60  and  _62
REMARK   28  A    between atoms: _62  and  _63
REMARK   29  A    between atoms: _66  and  _68
REMARK   30  A    between atoms: _68  and  _69
REMARK   31  A    between atoms: _68  and  _71
REMARK   32  A    between atoms: _71  and  _72
REMARK   33  A    between atoms: _72  and  _73
REMARK   34  A    between atoms: _73  and  _74
REMARK   35  A    between atoms: _74  and  _75
REMARK   36  A    between atoms: _79  and  _81
REMARK   37  A    between atoms: _81  and  _82
REMARK   38  A    between atoms: _81  and  _84
REMARK   39  A    between atoms: _84  and  _85
REMARK   40  A    between atoms: _85  and  _86
REMARK   41  A    between atoms: _86  and  _87
REMARK   42  A    between atoms: _96  and  _98
REMARK   43  A    between atoms: _98  and  _99
REMARK   44  A    between atoms: _102  and  _104
REMARK   45  A    between atoms: _104  and  _105
REMARK   46  A    between atoms: _104  and  _107
REMARK   47  A    between atoms: _107  and  _108
REMARK   48  A    between atoms: _111  and  _113
REMARK   49  A    between atoms: _113  and  _114
REMARK   50  A    between atoms: _113  and  _116
REMARK   51  A    between atoms: _116  and  _117
REMARK   52  A    between atoms: _123  and  _125
REMARK   53  A    between atoms: _125  and  _126
REMARK   54  A    between atoms: _125  and  _128
REMARK   55  A    between atoms: _128  and  _129
REMARK   56  A    between atoms: _132  and  _134
REMARK   57  A    between atoms: _134  and  _135
REMARK   58  A    between atoms: _134  and  _137
REMARK   59  A    between atoms: _137  and  _138
REMARK   60  A    between atoms: _141  and  _143
REMARK   61  A    between atoms: _143  and  _144
REMARK   62  A    between atoms: _143  and  _146
REMARK   63  A    between atoms: _146  and  _147
REMARK   64  A    between atoms: _150  and  _152
REMARK   65  A    between atoms: _152  and  _153
REMARK   66  A    between atoms: _152  and  _155
REMARK   67  A    between atoms: _155  and  _156
REMARK   68  A    between atoms: _156  and  _157
REMARK   69  A    between atoms: _157  and  _158
REMARK   70  A    between atoms: _167  and  _169
REMARK   71  A    between atoms: _169  and  _170
REMARK   72  A    between atoms: _169  and  _172
REMARK   73  A    between atoms: _172  and  _173
REMARK   74  A    between atoms: _179  and  _181
REMARK   75  A    between atoms: _181  and  _182
REMARK   76  A    between atoms: _181  and  _184
REMARK   77  A    between atoms: _184  and  _185
REMARK   78  A    between atoms: _188  and  _190
REMARK   79  A    between atoms: _190  and  _191
REMARK   80  A    between atoms: _190  and  _193
REMARK   81  A    between atoms: _193  and  _194
REMARK   82  A    between atoms: _197  and  _199
REMARK   83  A    between atoms: _199  and  _200
REMARK   84  A    between atoms: _203  and  _205
REMARK   85  A    between atoms: _205  and  _206
REMARK   86  A    between atoms: _205  and  _208
REMARK   87  A    between atoms: _208  and  _209
REMARK   88  A    between atoms: _209  and  _210
REMARK   89  A    between atoms: _215  and  _217
REMARK   90  A    between atoms: _217  and  _218
REMARK   91  A    between atoms: _221  and  _223
REMARK   92  A    between atoms: _223  and  _224
REMARK   93  A    between atoms: _227  and  _229
REMARK   94  A    between atoms: _229  and  _230
REMARK   95  A    between atoms: _229  and  _232
REMARK   96  A    between atoms: _232  and  _233
REMARK   97  A    between atoms: _236  and  _238
REMARK   98  A    between atoms: _238  and  _239
REMARK   99  A    between atoms: _238  and  _241
REMARK  100  A    between atoms: _241  and  _242
REMARK  101  A    between atoms: _245  and  _247
REMARK  102  A    between atoms: _247  and  _248
REMARK  103  A    between atoms: _247  and  _250
REMARK  104  A    between atoms: _250  and  _251
REMARK  105  A    between atoms: _251  and  _252
REMARK  106  A    between atoms: _252  and  _253
REMARK  107  A    between atoms: _253  and  _254
REMARK  108  A    between atoms: _258  and  _260
REMARK  109  A    between atoms: _260  and  _261
REMARK  110  A    between atoms: _260  and  _263
REMARK  111  A    between atoms: _263  and  _264
REMARK  112  A    between atoms: _269  and  _270
REMARK  113  A    between atoms: _272  and  _274
REMARK  114  A    between atoms: _274  and  _275
REMARK  115  A    between atoms: _274  and  _277
REMARK  116  A    between atoms: _277  and  _278
REMARK  117  A    between atoms: _280  and  _282
REMARK  118  A    between atoms: _282  and  _283
REMARK  119  A    between atoms: _282  and  _285
REMARK  120  A    between atoms: _288  and  _290
REMARK  121  A    between atoms: _290  and  _291
REMARK  122  A    between atoms: _290  and  _293
REMARK  123  A    between atoms: _293  and  _294
REMARK  124  A    between atoms: _297  and  _299
REMARK  125  A    between atoms: _299  and  _300
REMARK  126  A    between atoms: _299  and  _302
REMARK  127  A    between atoms: _302  and  _303
REMARK  128  A    between atoms: _305  and  _307
REMARK  129  A    between atoms: _307  and  _308
REMARK  130  A    between atoms: _307  and  _310
REMARK  131  A    between atoms: _310  and  _311
REMARK  132  A    between atoms: _314  and  _316
REMARK  133  A    between atoms: _316  and  _317
REMARK  134  A    between atoms: _316  and  _319
REMARK  135  A    between atoms: _319  and  _320
REMARK  136  A    between atoms: _320  and  _321
REMARK  137  A    between atoms: _326  and  _328
REMARK  138  A    between atoms: _328  and  _329
REMARK  139  A    between atoms: _328  and  _331
REMARK  140  A    between atoms: _331  and  _332
REMARK  141  A    between atoms: _334  and  _336
REMARK  142  A    between atoms: _336  and  _337
REMARK  143  A    between atoms: _336  and  _339
REMARK  144  A    between atoms: _339  and  _340
REMARK  145  A    between atoms: _345  and  _346
REMARK  146  A    between atoms: _348  and  _350
REMARK  147  A    between atoms: _350  and  _351
REMARK                            x       y       z     vdW  Elec       q    Type
REMARK                         _______ _______ _______ _____ _____    ______ ____
ROOT
ATOM      1  C   ALA A   4      11.461  37.405  64.445  0.00  0.00    +0.241 C 
ATOM      2  O   ALA A   4      12.079  37.918  65.364  0.00  0.00    -0.273 OA
ATOM      3  N   THR A   5      10.823  36.244  64.569  0.00  0.00    -0.295 N 
ATOM      4  H   THR A   5      10.296  35.880  63.750  0.00  0.00    +0.150 HD
ENDROOT
BRANCH   1   5
ATOM      5  CA  ALA A   4      11.415  38.059  63.059  0.00  0.00    +0.149 C 
ATOM      6  CB  ALA A   4      12.378  37.352  62.128  0.00  0.00    +0.031 C 
BRANCH   5   9
ATOM      7  C   ALA A   3      10.753  40.404  63.291  0.00  0.00    +0.241 C 
ATOM      8  O   ALA A   3       9.588  40.095  63.407  0.00  0.00    -0.273 OA
ATOM      9  N   ALA A   4      11.714  39.502  63.113  0.00  0.00    -0.297 N 
ATOM     10  H   ALA A   4      12.698  39.821  63.010  0.00  0.00    +0.150 HD
BRANCH   7  11
ATOM     11  CA  ALA A   3      11.137  41.885  63.364  0.00  0.00    +0.149 C 
ATOM     12  CB  ALA A   3      10.404  42.686  62.278  0.00  0.00    +0.031 C 
BRANCH  11  14
ATOM     13  C   GLN A   2      13.228  42.111  62.148  0.00  0.00    +0.241 C 
ATOM     14  N   ALA A   3      12.566  42.109  63.291  0.00  0.00    -0.297 N 
ATOM     15  H   ALA A   3      13.091  42.275  64.173  0.00  0.00    +0.150 HD
ATOM     16  O   GLN A   2      12.701  41.871  61.054  0.00  0.00    -0.273 OA
BRANCH  13  17
ATOM     17  CA  GLN A   2      14.703  42.461  62.250  0.00  0.00    +0.149 C 
BRANCH  17  20
ATOM     18  C   ALA A   1      15.428  40.208  61.617  0.00  0.00    +0.238 C 
ATOM     19  O   ALA A   1      14.924  39.643  62.597  0.00  0.00    -0.274 OA
ATOM     20  N   GLN A   2      15.489  41.529  61.456  0.00  0.00    -0.297 N 
ATOM     21  H   GLN A   2      16.128  41.912  60.730  0.00  0.00    +0.150 HD
BRANCH  18  22
ATOM     22  CA  ALA A   1      16.000  39.404  60.472  0.00  0.00    +0.145 C 
ATOM     23  CB  ALA A   1      14.851  38.962  59.562  0.00  0.00    +0.028 C 
BRANCH  22  24
ATOM     24  N   ALA A   1      16.746  38.248  60.943  0.00  0.00    -0.238 NA
ATOM     25  H   ALA A   1      16.268  37.325  60.983  0.00  0.00    +0.142 HD
ENDBRANCH  22  24
ENDBRANCH  18  22
ENDBRANCH  17  20
BRANCH  17  26
ATOM     26  CB  GLN A   2      14.912  43.891  61.762  0.00  0.00    +0.039 C 
BRANCH  26  27
ATOM     27  CG  GLN A   2      16.300  44.433  62.009  0.00  0.00    +0.087 C 
BRANCH  27  28
ATOM     28  CD  GLN A   2      16.463  45.873  61.538  0.00  0.00    +0.219 C 
ATOM     29  NE2 GLN A   2      17.299  46.625  62.240  0.00  0.00    -0.329 N 
ATOM     30 HE21 GLN A   2      17.796  46.223  63.060  0.00  0.00    +0.145 HD
ATOM     31 HE22 GLN A   2      17.458  47.617  61.971  0.00  0.00    +0.145 HD
ATOM     32  OE1 GLN A   2      15.850  46.303  60.558  0.00  0.00    -0.275 OA
ENDBRANCH  27  28
ENDBRANCH  26  27
ENDBRANCH  17  26
ENDBRANCH  13  17
ENDBRANCH  11  14
ENDBRANCH   7  11
ENDBRANCH   5   9
ENDBRANCH   1   5
BRANCH   3  33
ATOM     33  CA  THR A   5      10.826  35.453  65.803  0.00  0.00    +0.176 C 
BRANCH  33  34
ATOM     34  C   THR A   5      12.153  34.742  66.110  0.00  0.00    +0.243 C 
ATOM     35  O   THR A   5      12.334  34.123  67.163  0.00  0.00    -0.273 OA
ATOM     36  N   THR A   6      13.099  34.830  65.197  0.00  0.00    -0.295 N 
ATOM     37  H   THR A   6      13.052  35.580  64.478  0.00  0.00    +0.150 HD
BRANCH  36  38
ATOM     38  CA  THR A   6      14.192  33.902  65.185  0.00  0.00    +0.176 C 
BRANCH  38  39
ATOM     39  C   THR A   6      15.158  34.047  66.344  0.00  0.00    +0.243 C 
ATOM     40  O   THR A   6      15.577  33.046  66.945  0.00  0.00    -0.273 OA
ATOM     41  N   LYS A   7      15.536  35.278  66.653  0.00  0.00    -0.298 N 
ATOM     42  H   LYS A   7      15.118  36.087  66.151  0.00  0.00    +0.150 HD
BRANCH  41  43
ATOM     43  CA  LYS A   7      16.536  35.509  67.695  0.00  0.00    +0.137 C 
BRANCH  43  44
ATOM     44  C   LYS A   7      16.119  34.884  69.024  0.00  0.00    +0.227 C 
ATOM     45  O   LYS A   7      16.915  34.220  69.677  0.00  0.00    -0.286 OA
ENDBRANCH  43  44
BRANCH  43  46
ATOM     46  CB  LYS A   7      16.819  37.001  67.865  0.00  0.00    +0.028 C 
BRANCH  46  47
ATOM     47  CG  LYS A   7      17.897  37.314  68.893  0.00  0.00    -0.000 C 
BRANCH  47  48
ATOM     48  CD  LYS A   7      18.185  38.799  68.986  0.00  0.00    -0.024 C 
BRANCH  48  49
ATOM     49  CE  LYS A   7      19.104  39.116  70.154  0.00  0.00    -0.086 C 
BRANCH  49  50
ATOM     50  NZ  LYS A   7      19.435  40.566  70.238  0.00  0.00    +0.380 N 
ATOM     51  HZ1 LYS A   7      20.064  40.730  71.050  0.00  0.00    -0.089 HD
ATOM     52  HZ2 LYS A   7      18.559  41.114  70.359  0.00  0.00    -0.089 HD
ATOM     53  HZ3 LYS A   7      19.912  40.863  69.363  0.00  0.00    -0.089 HD
ENDBRANCH  49  50
ENDBRANCH  48  49
ENDBRANCH  47  48
ENDBRANCH  46  47
ENDBRANCH  43  46
ENDBRANCH  41  43
ENDBRANCH  38  39
BRANCH  38  54
ATOM     54  CB  THR A   6      14.978  34.019  63.873  0.00  0.00    +0.137 C 
ATOM     55  CG2 THR A   6      15.798  32.766  63.665  0.00  0.00    +0.034 C 
BRANCH  54  56
ATOM     56  OG1 THR A   6      14.070  34.195  62.773  0.00  0.00    -0.382 OA
ATOM     57  HG1 THR A   6      13.461  33.416  62.721  0.00  0.00    +0.210 HD
ENDBRANCH  54  56
ENDBRANCH  38  54
ENDBRANCH  36  38
ENDBRANCH  33  34
BRANCH  33  58
ATOM     58  CB  THR A   5       9.755  34.361  65.723  0.00  0.00    +0.137 C 
ATOM     59  CG2 THR A   5       8.378  34.977  65.639  0.00  0.00    +0.034 C 
BRANCH  58  60
ATOM     60  OG1 THR A   5      10.004  33.550  64.563  0.00  0.00    -0.382 OA
ATOM     61  HG1 THR A   5       9.316  32.841  64.504  0.00  0.00    +0.210 HD
ENDBRANCH  58  60
ENDBRANCH  33  58
ENDBRANCH   3  33
TORSDOF 26
REMARK  Name = ../refined-set-2016/2v25/2v25_pocket.pdb
REMARK  147 active torsions:
REMARK  status: ('A' for Active; 'I' for Inactive)
REMARK    1  A    between atoms: _1  and  _3
REMARK    2  A    between atoms: _3  and  _4
REMARK    3  A    between atoms: _3  and  _6
REMARK    4  A    between atoms: _6  and  _7
REMARK    5  A    between atoms: _7  and  _8
REMARK    6  A    between atoms: _8  and  _9
REMARK    7  A    between atoms: _9  and  _10
REMARK    8  A    between atoms: _14  and  _16
REMARK    9  A    between atoms: _16  and  _17
REMARK   10  A    between atoms: _16  and  _19
REMARK   11  A    between atoms: _19  and  _20
REMARK   12  A    between atoms: _23  and  _25
REMARK   13  A    between atoms: _25  and  _26
REMARK   14  A    between atoms: _25  and  _28
REMARK   15  A    between atoms: _31  and  _33
REMARK   16  A    between atoms: _33  and  _34
REMARK   17  A    between atoms: _33  and  _36
REMARK   18  A    between atoms: _36  and  _37
REMARK   19  A    between atoms: _37  and  _38
REMARK   20  A    between atoms: _41  and  _43
REMARK   21  A    between atoms: _43  and  _44
REMARK   22  A    between atoms: _43  and  _46
REMARK   23  A    between atoms: _49  and  _51
REMARK   24  A    between atoms: _51  and  _52
REMARK   25  A    between atoms: _51  and  _54
REMARK   26  A    between atoms: _54  and  _55
REMARK   27  A    between atoms: _60  and  _62
REMARK   28  A    between atoms: _62  and  _63
REMARK   29  A    between atoms: _66  and  _68
REMARK   30  A    between atoms: _68  and  _69
REMARK   31  A    between atoms: _68  and  _71
REMARK   32  A    between atoms: _71  and  _72
REMARK   33  A    between atoms: _72  and  _73
REMARK   34  A    between atoms: _73  and  _74
REMARK   35  A    between atoms: _74  and  _75
REMARK   36  A    between atoms: _79  and  _81
REMARK   37  A    between atoms: _81  and  _82
REMARK   38  A    between atoms: _81  and  _84
REMARK   39  A    between atoms: _84  and  _85
REMARK   40  A    between atoms: _85  and  _86
REMARK   41  A    between atoms: _86  and  _87
REMARK   42  A    between atoms: _96  and  _98
REMARK   43  A    between atoms: _98  and  _99
REMARK   44  A    between atoms: _102  and  _104
REMARK   45  A    between atoms: _104  and  _105
REMARK   46  A    between atoms: _104  and  _107
REMARK   47  A    between atoms: _107  and  _108
REMARK   48  A    between atoms: _111  and  _113
REMARK   49  A    between atoms: _113  and  _114
REMARK   50  A    between atoms: _113  and  _116
REMARK   51  A    between atoms: _116  and  _117
REMARK   52  A    between atoms: _123  and  _125
REMARK   53  A    between atoms: _125  and  _126
REMARK   54  A    between atoms: _125  and  _128
REMARK   55  A    between atoms: _128  and  _129
REMARK   56  A    between atoms: _132  and  _134
REMARK   57  A    between atoms: _134  and  _135
REMARK   58  A    between atoms: _134  and  _137
REMARK   59  A    between atoms: _137  and  _138
REMARK   60  A    between atoms: _141  and  _143
REMARK   61  A    between atoms: _143  and  _144
REMARK   62  A    between atoms: _143  and  _146
REMARK   63  A    between atoms: _146  and  _147
REMARK   64  A    between atoms: _150  and  _152
REMARK   65  A    between atoms: _152  and  _153
REMARK   66  A    between atoms: _152  and  _155
REMARK   67  A    between atoms: _155  and  _156
REMARK   68  A    between atoms: _156  and  _157
REMARK   69  A    between atoms: _157  and  _158
REMARK   70  A    between atoms: _167  and  _169
REMARK   71  A    between atoms: _169  and  _170
REMARK   72  A    between atoms: _169  and  _172
REMARK   73  A    between atoms: _172  and  _173
REMARK   74  A    between atoms: _179  and  _181
REMARK   75  A    between atoms: _181  and  _182
REMARK   76  A    between atoms: _181  and  _184
REMARK   77  A    between atoms: _184  and  _185
REMARK   78  A    between atoms: _188  and  _190
REMARK   79  A    between atoms: _190  and  _191
REMARK   80  A    between atoms: _190  and  _193
REMARK   81  A    between atoms: _193  and  _194
REMARK   82  A    between atoms: _197  and  _199
REMARK   83  A    between atoms: _199  and  _200
REMARK   84  A    between atoms: _203  and  _205
REMARK   85  A    between atoms: _205  and  _206
REMARK   86  A    between atoms: _205  and  _208
REMARK   87  A    between atoms: _208  and  _209
REMARK   88  A    between atoms: _209  and  _210
REMARK   89  A    between atoms: _215  and  _217
REMARK   90  A    between atoms: _217  and  _218
REMARK   91  A    between atoms: _221  and  _223
REMARK   92  A    between atoms: _223  and  _224
REMARK   93  A    between atoms: _227  and  _229
REMARK   94  A    between atoms: _229  and  _230
REMARK   95  A    between atoms: _229  and  _232
REMARK   96  A    between atoms: _232  and  _233
REMARK   97  A    between atoms: _236  and  _238
REMARK   98  A    between atoms: _238  and  _239
REMARK   99  A    between atoms: _238  and  _241
REMARK  100  A    between atoms: _241  and  _242
REMARK  101  A    between atoms: _245  and  _247
REMARK  102  A    between atoms: _247  and  _248
REMARK  103  A    between atoms: _247  and  _250
REMARK  104  A    between atoms: _250  and  _251
REMARK  105  A    between atoms: _251  and  _252
REMARK  106  A    between atoms: _252  and  _253
REMARK  107  A    between atoms: _253  and  _254
REMARK  108  A    between atoms: _258  and  _260
REMARK  109  A    between atoms: _260  and  _261
REMARK  110  A    between atoms: _260  and  _263
REMARK  111  A    between atoms: _263  and  _264
REMARK  112  A    between atoms: _269  and  _270
REMARK  113  A    between atoms: _272  and  _274
REMARK  114  A    between atoms: _274  and  _275
REMARK  115  A    between atoms: _274  and  _277
REMARK  116  A    between atoms: _277  and  _278
REMARK  117  A    between atoms: _280  and  _282
REMARK  118  A    between atoms: _282  and  _283
REMARK  119  A    between atoms: _282  and  _285
REMARK  120  A    between atoms: _288  and  _290
REMARK  121  A    between atoms: _290  and  _291
REMARK  122  A    between atoms: _290  and  _293
REMARK  123  A    between atoms: _293  and  _294
REMARK  124  A    between atoms: _297  and  _299
REMARK  125  A    between atoms: _299  and  _300
REMARK  126  A    between atoms: _299  and  _302
REMARK  127  A    between atoms: _302  and  _303
REMARK  128  A    between atoms: _305  and  _307
REMARK  129  A    between atoms: _307  and  _308
REMARK  130  A    between atoms: _307  and  _310
REMARK  131  A    between atoms: _310  and  _311
REMARK  132  A    between atoms: _314  and  _316
REMARK  133  A    between atoms: _316  and  _317
REMARK  134  A    between atoms: _316  and  _319
REMARK  135  A    between atoms: _319  and  _320
REMARK  136  A    between atoms: _320  and  _321
REMARK  137  A    between atoms: _326  and  _328
REMARK  138  A    between atoms: _328  and  _329
REMARK  139  A    between atoms: _328  and  _331
REMARK  140  A    between atoms: _331  and  _332
REMARK  141  A    between atoms: _334  and  _336
REMARK  142  A    between atoms: _336  and  _337
REMARK  143  A    between atoms: _336  and  _339
REMARK  144  A    between atoms: _339  and  _340
REMARK  145  A    between atoms: _345  and  _346
REMARK  146  A    between atoms: _348  and  _350
REMARK  147  A    between atoms: _350  and  _351
REMARK                            x       y       z     vdW  Elec       q    Type
REMARK                         _______ _______ _______ _____ _____    ______ ____
ROOT
ATOM      1  CG  TYR A   1      14.976  36.873  54.930  0.00  0.00    -0.020 A 
ATOM      2  CD2 TYR A   1      15.536  36.611  56.178  0.00  0.00    -0.001 A 
ATOM      3  CE2 TYR A   1      14.753  36.443  57.295  0.00  0.00    +0.036 A 
ATOM      4  CZ  TYR A   1      13.395  36.537  57.190  0.00  0.00    +0.134 A 
ATOM      5  CE1 TYR A   1      12.808  36.804  55.978  0.00  0.00    +0.036 A 
ATOM      6  CD1 TYR A   1      13.599  36.965  54.847  0.00  0.00    -0.001 A 
ENDROOT
BRANCH   4   7
ATOM      7  OH  TYR A   1      12.580  36.381  58.302  0.00  0.00    -0.506 OA
ATOM      8  HH  TYR A   1      11.958  35.626  58.151  0.00  0.00    +0.292 HD
ENDBRANCH   4   7
BRANCH   1   9
ATOM      9  CB  TYR A   1      15.860  37.117  53.732  0.00  0.00    +0.051 C 
BRANCH   9  10
ATOM     10  CA  TYR A   1      16.854  38.261  54.023  0.00  0.00    +0.137 C 
BRANCH  10  11
ATOM     11  N   TYR A   1      16.169  39.537  54.163  0.00  0.00    -0.239 NA
ATOM     12  H   TYR A   1      15.228  39.662  53.739  0.00  0.00    +0.142 HD
ENDBRANCH  10  11
BRANCH  10  13
ATOM     13  C   TYR A   1      18.023  38.287  53.040  0.00  0.00    +0.224 C 
ATOM     14  O   TYR A   1      19.046  37.686  53.323  0.00  0.00    -0.287 OA
ENDBRANCH  10  13
ENDBRANCH   9  10
ENDBRANCH   1   9
TORSDOF 5
REMARK  Name = ../refined-set-2016/2v25/2v25_pocket.pdb
REMARK  147 active torsions:
REMARK  status: ('A' for Active; 'I' for Inactive)
REMARK    1  A    between atoms: _1  and  _3
REMARK    2  A    between atoms: _3  and  _4
REMARK    3  A    between atoms: _3  and  _6
REMARK    4  A    between atoms: _6  and  _7
REMARK    5  A    between atoms: _7  and  _8
REMARK    6  A    between atoms: _8  and  _9
REMARK    7  A    between atoms: _9  and  _10
REMARK    8  A    between atoms: _14  and  _16
REMARK    9  A    between atoms: _16  and  _17
REMARK   10  A    between atoms: _16  and  _19
REMARK   11  A    between atoms: _19  and  _20
REMARK   12  A    between atoms: _23  and  _25
REMARK   13  A    between atoms: _25  and  _26
REMARK   14  A    between atoms: _25  and  _28
REMARK   15  A    between atoms: _31  and  _33
REMARK   16  A    between atoms: _33  and  _34
REMARK   17  A    between atoms: _33  and  _36
REMARK   18  A    between atoms: _36  and  _37
REMARK   19  A    between atoms: _37  and  _38
REMARK   20  A    between atoms: _41  and  _43
REMARK   21  A    between atoms: _43  and  _44
REMARK   22  A    between atoms: _43  and  _46
REMARK   23  A    between atoms: _49  and  _51
REMARK   24  A    between atoms: _51  and  _52
REMARK   25  A    between atoms: _51  and  _54
REMARK   26  A    between atoms: _54  and  _55
REMARK   27  A    between atoms: _60  and  _62
REMARK   28  A    between atoms: _62  and  _63
REMARK   29  A    between atoms: _66  and  _68
REMARK   30  A    between atoms: _68  and  _69
REMARK   31  A    between atoms: _68  and  _71
REMARK   32  A    between atoms: _71  and  _72
REMARK   33  A    between atoms: _72  and  _73
REMARK   34  A    between atoms: _73  and  _74
REMARK   35  A    between atoms: _74  and  _75
REMARK   36  A    between atoms: _79  and  _81
REMARK   37  A    between atoms: _81  and  _82
REMARK   38  A    between atoms: _81  and  _84
REMARK   39  A    between atoms: _84  and  _85
REMARK   40  A    between atoms: _85  and  _86
REMARK   41  A    between atoms: _86  and  _87
REMARK   42  A    between atoms: _96  and  _98
REMARK   43  A    between atoms: _98  and  _99
REMARK   44  A    between atoms: _102  and  _104
REMARK   45  A    between atoms: _104  and  _105
REMARK   46  A    between atoms: _104  and  _107
REMARK   47  A    between atoms: _107  and  _108
REMARK   48  A    between atoms: _111  and  _113
REMARK   49  A    between atoms: _113  and  _114
REMARK   50  A    between atoms: _113  and  _116
REMARK   51  A    between atoms: _116  and  _117
REMARK   52  A    between atoms: _123  and  _125
REMARK   53  A    between atoms: _125  and  _126
REMARK   54  A    between atoms: _125  and  _128
REMARK   55  A    between atoms: _128  and  _129
REMARK   56  A    between atoms: _132  and  _134
REMARK   57  A    between atoms: _134  and  _135
REMARK   58  A    between atoms: _134  and  _137
REMARK   59  A    between atoms: _137  and  _138
REMARK   60  A    between atoms: _141  and  _143
REMARK   61  A    between atoms: _143  and  _144
REMARK   62  A    between atoms: _143  and  _146
REMARK   63  A    between atoms: _146  and  _147
REMARK   64  A    between atoms: _150  and  _152
REMARK   65  A    between atoms: _152  and  _153
REMARK   66  A    between atoms: _152  and  _155
REMARK   67  A    between atoms: _155  and  _156
REMARK   68  A    between atoms: _156  and  _157
REMARK   69  A    between atoms: _157  and  _158
REMARK   70  A    between atoms: _167  and  _169
REMARK   71  A    between atoms: _169  and  _170
REMARK   72  A    between atoms: _169  and  _172
REMARK   73  A    between atoms: _172  and  _173
REMARK   74  A    between atoms: _179  and  _181
REMARK   75  A    between atoms: _181  and  _182
REMARK   76  A    between atoms: _181  and  _184
REMARK   77  A    between atoms: _184  and  _185
REMARK   78  A    between atoms: _188  and  _190
REMARK   79  A    between atoms: _190  and  _191
REMARK   80  A    between atoms: _190  and  _193
REMARK   81  A    between atoms: _193  and  _194
REMARK   82  A    between atoms: _197  and  _199
REMARK   83  A    between atoms: _199  and  _200
REMARK   84  A    between atoms: _203  and  _205
REMARK   85  A    between atoms: _205  and  _206
REMARK   86  A    between atoms: _205  and  _208
REMARK   87  A    between atoms: _208  and  _209
REMARK   88  A    between atoms: _209  and  _210
REMARK   89  A    between atoms: _215  and  _217
REMARK   90  A    between atoms: _217  and  _218
REMARK   91  A    between atoms: _221  and  _223
REMARK   92  A    between atoms: _223  and  _224
REMARK   93  A    between atoms: _227  and  _229
REMARK   94  A    between atoms: _229  and  _230
REMARK   95  A    between atoms: _229  and  _232
REMARK   96  A    between atoms: _232  and  _233
REMARK   97  A    between atoms: _236  and  _238
REMARK   98  A    between atoms: _238  and  _239
REMARK   99  A    between atoms: _238  and  _241
REMARK  100  A    between atoms: _241  and  _242
REMARK  101  A    between atoms: _245  and  _247
REMARK  102  A    between atoms: _247  and  _248
REMARK  103  A    between atoms: _247  and  _250
REMARK  104  A    between atoms: _250  and  _251
REMARK  105  A    between atoms: _251  and  _252
REMARK  106  A    between atoms: _252  and  _253
REMARK  107  A    between atoms: _253  and  _254
REMARK  108  A    between atoms: _258  and  _260
REMARK  109  A    between atoms: _260  and  _261
REMARK  110  A    between atoms: _260  and  _263
REMARK  111  A    between atoms: _263  and  _264
REMARK  112  A    between atoms: _269  and  _270
REMARK  113  A    between atoms: _272  and  _274
REMARK  114  A    between atoms: _274  and  _275
REMARK  115  A    between atoms: _274  and  _277
REMARK  116  A    between atoms: _277  and  _278
REMARK  117  A    between atoms: _280  and  _282
REMARK  118  A    between atoms: _282  and  _283
REMARK  119  A    between atoms: _282  and  _285
REMARK  120  A    between atoms: _288  and  _290
REMARK  121  A    between atoms: _290  and  _291
REMARK  122  A    between atoms: _290  and  _293
REMARK  123  A    between atoms: _293  and  _294
REMARK  124  A    between atoms: _297  and  _299
REMARK  125  A    between atoms: _299  and  _300
REMARK  126  A    between atoms: _299  and  _302
REMARK  127  A    between atoms: _302  and  _303
REMARK  128  A    between atoms: _305  and  _307
REMARK  129  A    between atoms: _307  and  _308
REMARK  130  A    between atoms: _307  and  _310
REMARK  131  A    between atoms: _310  and  _311
REMARK  132  A    between atoms: _314  and  _316
REMARK  133  A    between atoms: _316  and  _317
REMARK  134  A    between atoms: _316  and  _319
REMARK  135  A    between atoms: _319  and  _320
REMARK  136  A    between atoms: _320  and  _321
REMARK  137  A    between atoms: _326  and  _328
REMARK  138  A    between atoms: _328  and  _329
REMARK  139  A    between atoms: _328  and  _331
REMARK  140  A    between atoms: _331  and  _332
REMARK  141  A    between atoms: _334  and  _336
REMARK  142  A    between atoms: _336  and  _337
REMARK  143  A    between atoms: _336  and  _339
REMARK  144  A    between atoms: _339  and  _340
REMARK  145  A    between atoms: _345  and  _346
REMARK  146  A    between atoms: _348  and  _350
REMARK  147  A    between atoms: _350  and  _351
REMARK                            x       y       z     vdW  Elec       q    Type
REMARK                         _______ _______ _______ _____ _____    ______ ____
ROOT
ATOM      1  CA  VAL A   2      15.087  31.616  60.018  0.00  0.00    +0.148 C 
ENDROOT
BRANCH   1   4
ATOM      2  C   SER A   1      17.466  32.118  60.538  0.00  0.00    +0.241 C 
ATOM      3  O   SER A   1      17.336  33.328  60.655  0.00  0.00    -0.274 OA
ATOM      4  N   VAL A   2      16.510  31.282  60.144  0.00  0.00    -0.297 N 
ATOM      5  H   VAL A   2      16.795  30.311  59.905  0.00  0.00    +0.150 HD
BRANCH   2   6
ATOM      6  CA  SER A   1      18.808  31.464  60.826  0.00  0.00    +0.174 C 
BRANCH   6   7
ATOM      7  N   SER A   1      19.885  32.234  60.244  0.00  0.00    -0.236 NA
ATOM      8  H   SER A   1      20.094  33.186  60.608  0.00  0.00    +0.142 HD
ENDBRANCH   6   7
BRANCH   6   9
ATOM      9  CB  SER A   1      19.000  31.315  62.331  0.00  0.00    +0.163 C 
BRANCH   9  10
ATOM     10  OG  SER A   1      17.990  30.480  62.875  0.00  0.00    -0.380 OA
ATOM     11  H   SER A   1      18.039  29.586  62.452  0.00  0.00    +0.211 HD
ENDBRANCH   9  10
ENDBRANCH   6   9
ENDBRANCH   2   6
ENDBRANCH   1   4
BRANCH   1  12
ATOM     12  C   VAL A   2      14.334  30.329  59.691  0.00  0.00    +0.241 C 
ATOM     13  O   VAL A   2      14.917  29.254  59.599  0.00  0.00    -0.273 OA
ATOM     14  N   ASP A   3      13.018  30.423  59.541  0.00  0.00    -0.298 N 
ATOM     15  H   ASP A   3      12.554  31.336  59.723  0.00  0.00    +0.150 HD
BRANCH  14  16
ATOM     16  CA  ASP A   3      12.204  29.288  59.130  0.00  0.00    +0.148 C 
BRANCH  16  17
ATOM     17  C   ASP A   3      12.843  28.551  57.956  0.00  0.00    +0.227 C 
ATOM     18  O   ASP A   3      13.298  29.176  56.991  0.00  0.00    -0.286 OA
ENDBRANCH  16  17
BRANCH  16  19
ATOM     19  CB  ASP A   3      10.818  29.738  58.653  0.00  0.00    +0.142 C 
BRANCH  19  20
ATOM     20  CG  ASP A   3      10.113  30.724  59.595  0.00  0.00    +0.367 C 
ATOM     21  OD2 ASP A   3      10.773  31.404  60.408  0.00  0.00    -0.246 OA
ATOM     22  OD1 ASP A   3       8.862  30.842  59.469  0.00  0.00    -0.246 OA
ENDBRANCH  19  20
ENDBRANCH  16  19
ENDBRANCH  14  16
ENDBRANCH   1  12
BRANCH   1  23
ATOM     23  CB  VAL A   2      14.836  32.723  58.950  0.00  0.00    +0.027 C 
ATOM     24  CG2 VAL A   2      13.444  33.311  59.094  0.00  0.00    +0.002 C 
ATOM     25  CG1 VAL A   2      15.099  32.226  57.547  0.00  0.00    +0.002 C 
ENDBRANCH   1  23
TORSDOF 11
REMARK  Name = ../refined-set-2016/2v25/2v25_pocket.pdb
REMARK  147 active torsions:
REMARK  status: ('A' for Active; 'I' for Inactive)
REMARK    1  A    between atoms: _1  and  _3
REMARK    2  A    between atoms: _3  and  _4
REMARK    3  A    between atoms: _3  and  _6
REMARK    4  A    between atoms: _6  and  _7
REMARK    5  A    between atoms: _7  and  _8
REMARK    6  A    between atoms: _8  and  _9
REMARK    7  A    between atoms: _9  and  _10
REMARK    8  A    between atoms: _14  and  _16
REMARK    9  A    between atoms: _16  and  _17
REMARK   10  A    between atoms: _16  and  _19
REMARK   11  A    between atoms: _19  and  _20
REMARK   12  A    between atoms: _23  and  _25
REMARK   13  A    between atoms: _25  and  _26
REMARK   14  A    between atoms: _25  and  _28
REMARK   15  A    between atoms: _31  and  _33
REMARK   16  A    between atoms: _33  and  _34
REMARK   17  A    between atoms: _33  and  _36
REMARK   18  A    between atoms: _36  and  _37
REMARK   19  A    between atoms: _37  and  _38
REMARK   20  A    between atoms: _41  and  _43
REMARK   21  A    between atoms: _43  and  _44
REMARK   22  A    between atoms: _43  and  _46
REMARK   23  A    between atoms: _49  and  _51
REMARK   24  A    between atoms: _51  and  _52
REMARK   25  A    between atoms: _51  and  _54
REMARK   26  A    between atoms: _54  and  _55
REMARK   27  A    between atoms: _60  and  _62
REMARK   28  A    between atoms: _62  and  _63
REMARK   29  A    between atoms: _66  and  _68
REMARK   30  A    between atoms: _68  and  _69
REMARK   31  A    between atoms: _68  and  _71
REMARK   32  A    between atoms: _71  and  _72
REMARK   33  A    between atoms: _72  and  _73
REMARK   34  A    between atoms: _73  and  _74
REMARK   35  A    between atoms: _74  and  _75
REMARK   36  A    between atoms: _79  and  _81
REMARK   37  A    between atoms: _81  and  _82
REMARK   38  A    between atoms: _81  and  _84
REMARK   39  A    between atoms: _84  and  _85
REMARK   40  A    between atoms: _85  and  _86
REMARK   41  A    between atoms: _86  and  _87
REMARK   42  A    between atoms: _96  and  _98
REMARK   43  A    between atoms: _98  and  _99
REMARK   44  A    between atoms: _102  and  _104
REMARK   45  A    between atoms: _104  and  _105
REMARK   46  A    between atoms: _104  and  _107
REMARK   47  A    between atoms: _107  and  _108
REMARK   48  A    between atoms: _111  and  _113
REMARK   49  A    between atoms: _113  and  _114
REMARK   50  A    between atoms: _113  and  _116
REMARK   51  A    between atoms: _116  and  _117
REMARK   52  A    between atoms: _123  and  _125
REMARK   53  A    between atoms: _125  and  _126
REMARK   54  A    between atoms: _125  and  _128
REMARK   55  A    between atoms: _128  and  _129
REMARK   56  A    between atoms: _132  and  _134
REMARK   57  A    between atoms: _134  and  _135
REMARK   58  A    between atoms: _134  and  _137
REMARK   59  A    between atoms: _137  and  _138
REMARK   60  A    between atoms: _141  and  _143
REMARK   61  A    between atoms: _143  and  _144
REMARK   62  A    between atoms: _143  and  _146
REMARK   63  A    between atoms: _146  and  _147
REMARK   64  A    between atoms: _150  and  _152
REMARK   65  A    between atoms: _152  and  _153
REMARK   66  A    between atoms: _152  and  _155
REMARK   67  A    between atoms: _155  and  _156
REMARK   68  A    between atoms: _156  and  _157
REMARK   69  A    between atoms: _157  and  _158
REMARK   70  A    between atoms: _167  and  _169
REMARK   71  A    between atoms: _169  and  _170
REMARK   72  A    between atoms: _169  and  _172
REMARK   73  A    between atoms: _172  and  _173
REMARK   74  A    between atoms: _179  and  _181
REMARK   75  A    between atoms: _181  and  _182
REMARK   76  A    between atoms: _181  and  _184
REMARK   77  A    between atoms: _184  and  _185
REMARK   78  A    between atoms: _188  and  _190
REMARK   79  A    between atoms: _190  and  _191
REMARK   80  A    between atoms: _190  and  _193
REMARK   81  A    between atoms: _193  and  _194
REMARK   82  A    between atoms: _197  and  _199
REMARK   83  A    between atoms: _199  and  _200
REMARK   84  A    between atoms: _203  and  _205
REMARK   85  A    between atoms: _205  and  _206
REMARK   86  A    between atoms: _205  and  _208
REMARK   87  A    between atoms: _208  and  _209
REMARK   88  A    between atoms: _209  and  _210
REMARK   89  A    between atoms: _215  and  _217
REMARK   90  A    between atoms: _217  and  _218
REMARK   91  A    between atoms: _221  and  _223
REMARK   92  A    between atoms: _223  and  _224
REMARK   93  A    between atoms: _227  and  _229
REMARK   94  A    between atoms: _229  and  _230
REMARK   95  A    between atoms: _229  and  _232
REMARK   96  A    between atoms: _232  and  _233
REMARK   97  A    between atoms: _236  and  _238
REMARK   98  A    between atoms: _238  and  _239
REMARK   99  A    between atoms: _238  and  _241
REMARK  100  A    between atoms: _241  and  _242
REMARK  101  A    between atoms: _245  and  _247
REMARK  102  A    between atoms: _247  and  _248
REMARK  103  A    between atoms: _247  and  _250
REMARK  104  A    between atoms: _250  and  _251
REMARK  105  A    between atoms: _251  and  _252
REMARK  106  A    between atoms: _252  and  _253
REMARK  107  A    between atoms: _253  and  _254
REMARK  108  A    between atoms: _258  and  _260
REMARK  109  A    between atoms: _260  and  _261
REMARK  110  A    between atoms: _260  and  _263
REMARK  111  A    between atoms: _263  and  _264
REMARK  112  A    between atoms: _269  and  _270
REMARK  113  A    between atoms: _272  and  _274
REMARK  114  A    between atoms: _274  and  _275
REMARK  115  A    between atoms: _274  and  _277
REMARK  116  A    between atoms: _277  and  _278
REMARK  117  A    between atoms: _280  and  _282
REMARK  118  A    between atoms: _282  and  _283
REMARK  119  A    between atoms: _282  and  _285
REMARK  120  A    between atoms: _288  and  _290
REMARK  121  A    between atoms: _290  and  _291
REMARK  122  A    between atoms: _290  and  _293
REMARK  123  A    between atoms: _293  and  _294
REMARK  124  A    between atoms: _297  and  _299
REMARK  125  A    between atoms: _299  and  _300
REMARK  126  A    between atoms: _299  and  _302
REMARK  127  A    between atoms: _302  and  _303
REMARK  128  A    between atoms: _305  and  _307
REMARK  129  A    between atoms: _307  and  _308
REMARK  130  A    between atoms: _307  and  _310
REMARK  131  A    between atoms: _310  and  _311
REMARK  132  A    between atoms: _314  and  _316
REMARK  133  A    between atoms: _316  and  _317
REMARK  134  A    between atoms: _316  and  _319
REMARK  135  A    between atoms: _319  and  _320
REMARK  136  A    between atoms: _320  and  _321
REMARK  137  A    between atoms: _326  and  _328
REMARK  138  A    between atoms: _328  and  _329
REMARK  139  A    between atoms: _328  and  _331
REMARK  140  A    between atoms: _331  and  _332
REMARK  141  A    between atoms: _334  and  _336
REMARK  142  A    between atoms: _336  and  _337
REMARK  143  A    between atoms: _336  and  _339
REMARK  144  A    between atoms: _339  and  _340
REMARK  145  A    between atoms: _345  and  _346
REMARK  146  A    between atoms: _348  and  _350
REMARK  147  A    between atoms: _350  and  _351
REMARK                            x       y       z     vdW  Elec       q    Type
REMARK                         _______ _______ _______ _____ _____    ______ ____
ROOT
ATOM      1  C   SER A   1      11.422  28.550  53.632  0.00  0.00    +0.241 C 
ATOM      2  N   ILE A   2      11.903  29.518  54.404  0.00  0.00    -0.298 N 
ATOM      3  H   ILE A   2      11.807  29.427  55.436  0.00  0.00    +0.150 HD
ATOM      4  O   SER A   1      11.513  28.562  52.397  0.00  0.00    -0.274 OA
ENDROOT
BRANCH   1   5
ATOM      5  CA  SER A   1      10.741  27.400  54.369  0.00  0.00    +0.174 C 
BRANCH   5   6
ATOM      6  N   SER A   1      11.487  27.065  55.575  0.00  0.00    -0.236 NA
ATOM      7  H   SER A   1      10.991  27.063  56.489  0.00  0.00    +0.142 HD
ENDBRANCH   5   6
BRANCH   5   8
ATOM      8  CB  SER A   1       9.297  27.792  54.741  0.00  0.00    +0.163 C 
BRANCH   8   9
ATOM      9  OG  SER A   1       9.297  28.795  55.741  0.00  0.00    -0.380 OA
ATOM     10  H   SER A   1       8.363  29.034  55.967  0.00  0.00    +0.211 HD
ENDBRANCH   8   9
ENDBRANCH   5   8
ENDBRANCH   1   5
BRANCH   2  11
ATOM     11  CA  ILE A   2      12.553  30.691  53.870  0.00  0.00    +0.137 C 
BRANCH  11  12
ATOM     12  CB  ILE A   2      12.465  31.863  54.881  0.00  0.00    +0.026 C 
ATOM     13  CG2 ILE A   2      13.253  33.080  54.396  0.00  0.00    +0.002 C 
BRANCH  12  14
ATOM     14  CG1 ILE A   2      10.995  32.239  55.121  0.00  0.00    +0.002 C 
ATOM     15  CD1 ILE A   2      10.771  33.075  56.362  0.00  0.00    +0.000 C 
ENDBRANCH  12  14
ENDBRANCH  11  12
BRANCH  11  16
ATOM     16  C   ILE A   2      14.002  30.368  53.515  0.00  0.00    +0.227 C 
ATOM     17  O   ILE A   2      14.510  30.799  52.477  0.00  0.00    -0.286 OA
ENDBRANCH  11  16
ENDBRANCH   2  11
TORSDOF 8
REMARK  Name = ../refined-set-2016/2v25/2v25_pocket.pdb
REMARK  147 active torsions:
REMARK  status: ('A' for Active; 'I' for Inactive)
REMARK    1  A    between atoms: _1  and  _3
REMARK    2  A    between atoms: _3  and  _4
REMARK    3  A    between atoms: _3  and  _6
REMARK    4  A    between atoms: _6  and  _7
REMARK    5  A    between atoms: _7  and  _8
REMARK    6  A    between atoms: _8  and  _9
REMARK    7  A    between atoms: _9  and  _10
REMARK    8  A    between atoms: _14  and  _16
REMARK    9  A    between atoms: _16  and  _17
REMARK   10  A    between atoms: _16  and  _19
REMARK   11  A    between atoms: _19  and  _20
REMARK   12  A    between atoms: _23  and  _25
REMARK   13  A    between atoms: _25  and  _26
REMARK   14  A    between atoms: _25  and  _28
REMARK   15  A    between atoms: _31  and  _33
REMARK   16  A    between atoms: _33  and  _34
REMARK   17  A    between atoms: _33  and  _36
REMARK   18  A    between atoms: _36  and  _37
REMARK   19  A    between atoms: _37  and  _38
REMARK   20  A    between atoms: _41  and  _43
REMARK   21  A    between atoms: _43  and  _44
REMARK   22  A    between atoms: _43  and  _46
REMARK   23  A    between atoms: _49  and  _51
REMARK   24  A    between atoms: _51  and  _52
REMARK   25  A    between atoms: _51  and  _54
REMARK   26  A    between atoms: _54  and  _55
REMARK   27  A    between atoms: _60  and  _62
REMARK   28  A    between atoms: _62  and  _63
REMARK   29  A    between atoms: _66  and  _68
REMARK   30  A    between atoms: _68  and  _69
REMARK   31  A    between atoms: _68  and  _71
REMARK   32  A    between atoms: _71  and  _72
REMARK   33  A    between atoms: _72  and  _73
REMARK   34  A    between atoms: _73  and  _74
REMARK   35  A    between atoms: _74  and  _75
REMARK   36  A    between atoms: _79  and  _81
REMARK   37  A    between atoms: _81  and  _82
REMARK   38  A    between atoms: _81  and  _84
REMARK   39  A    between atoms: _84  and  _85
REMARK   40  A    between atoms: _85  and  _86
REMARK   41  A    between atoms: _86  and  _87
REMARK   42  A    between atoms: _96  and  _98
REMARK   43  A    between atoms: _98  and  _99
REMARK   44  A    between atoms: _102  and  _104
REMARK   45  A    between atoms: _104  and  _105
REMARK   46  A    between atoms: _104  and  _107
REMARK   47  A    between atoms: _107  and  _108
REMARK   48  A    between atoms: _111  and  _113
REMARK   49  A    between atoms: _113  and  _114
REMARK   50  A    between atoms: _113  and  _116
REMARK   51  A    between atoms: _116  and  _117
REMARK   52  A    between atoms: _123  and  _125
REMARK   53  A    between atoms: _125  and  _126
REMARK   54  A    between atoms: _125  and  _128
REMARK   55  A    between atoms: _128  and  _129
REMARK   56  A    between atoms: _132  and  _134
REMARK   57  A    between atoms: _134  and  _135
REMARK   58  A    between atoms: _134  and  _137
REMARK   59  A    between atoms: _137  and  _138
REMARK   60  A    between atoms: _141  and  _143
REMARK   61  A    between atoms: _143  and  _144
REMARK   62  A    between atoms: _143  and  _146
REMARK   63  A    between atoms: _146  and  _147
REMARK   64  A    between atoms: _150  and  _152
REMARK   65  A    between atoms: _152  and  _153
REMARK   66  A    between atoms: _152  and  _155
REMARK   67  A    between atoms: _155  and  _156
REMARK   68  A    between atoms: _156  and  _157
REMARK   69  A    between atoms: _157  and  _158
REMARK   70  A    between atoms: _167  and  _169
REMARK   71  A    between atoms: _169  and  _170
REMARK   72  A    between atoms: _169  and  _172
REMARK   73  A    between atoms: _172  and  _173
REMARK   74  A    between atoms: _179  and  _181
REMARK   75  A    between atoms: _181  and  _182
REMARK   76  A    between atoms: _181  and  _184
REMARK   77  A    between atoms: _184  and  _185
REMARK   78  A    between atoms: _188  and  _190
REMARK   79  A    between atoms: _190  and  _191
REMARK   80  A    between atoms: _190  and  _193
REMARK   81  A    between atoms: _193  and  _194
REMARK   82  A    between atoms: _197  and  _199
REMARK   83  A    between atoms: _199  and  _200
REMARK   84  A    between atoms: _203  and  _205
REMARK   85  A    between atoms: _205  and  _206
REMARK   86  A    between atoms: _205  and  _208
REMARK   87  A    between atoms: _208  and  _209
REMARK   88  A    between atoms: _209  and  _210
REMARK   89  A    between atoms: _215  and  _217
REMARK   90  A    between atoms: _217  and  _218
REMARK   91  A    between atoms: _221  and  _223
REMARK   92  A    between atoms: _223  and  _224
REMARK   93  A    between atoms: _227  and  _229
REMARK   94  A    between atoms: _229  and  _230
REMARK   95  A    between atoms: _229  and  _232
REMARK   96  A    between atoms: _232  and  _233
REMARK   97  A    between atoms: _236  and  _238
REMARK   98  A    between atoms: _238  and  _239
REMARK   99  A    between atoms: _238  and  _241
REMARK  100  A    between atoms: _241  and  _242
REMARK  101  A    between atoms: _245  and  _247
REMARK  102  A    between atoms: _247  and  _248
REMARK  103  A    between atoms: _247  and  _250
REMARK  104  A    between atoms: _250  and  _251
REMARK  105  A    between atoms: _251  and  _252
REMARK  106  A    between atoms: _252  and  _253
REMARK  107  A    between atoms: _253  and  _254
REMARK  108  A    between atoms: _258  and  _260
REMARK  109  A    between atoms: _260  and  _261
REMARK  110  A    between atoms: _260  and  _263
REMARK  111  A    between atoms: _263  and  _264
REMARK  112  A    between atoms: _269  and  _270
REMARK  113  A    between atoms: _272  and  _274
REMARK  114  A    between atoms: _274  and  _275
REMARK  115  A    between atoms: _274  and  _277
REMARK  116  A    between atoms: _277  and  _278
REMARK  117  A    between atoms: _280  and  _282
REMARK  118  A    between atoms: _282  and  _283
REMARK  119  A    between atoms: _282  and  _285
REMARK  120  A    between atoms: _288  and  _290
REMARK  121  A    between atoms: _290  and  _291
REMARK  122  A    between atoms: _290  and  _293
REMARK  123  A    between atoms: _293  and  _294
REMARK  124  A    between atoms: _297  and  _299
REMARK  125  A    between atoms: _299  and  _300
REMARK  126  A    between atoms: _299  and  _302
REMARK  127  A    between atoms: _302  and  _303
REMARK  128  A    between atoms: _305  and  _307
REMARK  129  A    between atoms: _307  and  _308
REMARK  130  A    between atoms: _307  and  _310
REMARK  131  A    between atoms: _310  and  _311
REMARK  132  A    between atoms: _314  and  _316
REMARK  133  A    between atoms: _316  and  _317
REMARK  134  A    between atoms: _316  and  _319
REMARK  135  A    between atoms: _319  and  _320
REMARK  136  A    between atoms: _320  and  _321
REMARK  137  A    between atoms: _326  and  _328
REMARK  138  A    between atoms: _328  and  _329
REMARK  139  A    between atoms: _328  and  _331
REMARK  140  A    between atoms: _331  and  _332
REMARK  141  A    between atoms: _334  and  _336
REMARK  142  A    between atoms: _336  and  _337
REMARK  143  A    between atoms: _336  and  _339
REMARK  144  A    between atoms: _339  and  _340
REMARK  145  A    between atoms: _345  and  _346
REMARK  146  A    between atoms: _348  and  _350
REMARK  147  A    between atoms: _350  and  _351
REMARK                            x       y       z     vdW  Elec       q    Type
REMARK                         _______ _______ _______ _____ _____    ______ ____
ROOT
ATOM      1  C   SER A   2       2.203  29.515  62.362  0.00  0.00    +0.243 C 
ATOM      2  O   SER A   2       2.272  30.572  62.978  0.00  0.00    -0.273 OA
ATOM      3  N   TYR A   3       1.757  29.420  61.117  0.00  0.00    -0.297 N 
ATOM      4  H   TYR A   3       1.635  28.474  60.702  0.00  0.00    +0.150 HD
ENDROOT
BRANCH   1   5
ATOM      5  CA  SER A   2       2.619  28.215  63.020  0.00  0.00    +0.178 C 
BRANCH   5   7
ATOM      6  C   GLN A   1       5.050  27.976  62.862  0.00  0.00    +0.238 C 
ATOM      7  N   SER A   2       3.975  28.353  63.555  0.00  0.00    -0.295 N 
ATOM      8  H   SER A   2       4.104  28.757  64.504  0.00  0.00    +0.150 HD
ATOM      9  O   GLN A   1       4.982  27.416  61.779  0.00  0.00    -0.274 OA
BRANCH   6  10
ATOM     10  CA  GLN A   1       6.397  28.240  63.492  0.00  0.00    +0.145 C 
BRANCH  10  11
ATOM     11  N   GLN A   1       7.002  26.955  63.806  0.00  0.00    -0.238 NA
ATOM     12  H   GLN A   1       7.262  26.328  63.018  0.00  0.00    +0.142 HD
ENDBRANCH  10  11
BRANCH  10  13
ATOM     13  CB  GLN A   1       7.256  28.974  62.478  0.00  0.00    +0.036 C 
BRANCH  13  14
ATOM     14  CG  GLN A   1       8.713  29.173  62.897  0.00  0.00    +0.087 C 
BRANCH  14  15
ATOM     15  CD  GLN A   1       8.820  30.178  63.998  0.00  0.00    +0.219 C 
ATOM     16  NE2 GLN A   1       9.099  29.710  65.207  0.00  0.00    -0.329 N 
ATOM     17 HE21 GLN A   1       9.159  30.361  66.016  0.00  0.00    +0.145 HD
ATOM     18 HE22 GLN A   1       9.257  28.692  65.347  0.00  0.00    +0.145 HD
ATOM     19  OE1 GLN A   1       8.624  31.373  63.778  0.00  0.00    -0.275 OA
ENDBRANCH  14  15
ENDBRANCH  13  14
ENDBRANCH  10  13
ENDBRANCH   6  10
ENDBRANCH   5   7
BRANCH   5  20
ATOM     20  CB  SER A   2       1.633  27.871  64.131  0.00  0.00    +0.166 C 
BRANCH  20  21
ATOM     21  OG  SER A   2       1.836  26.540  64.563  0.00  0.00    -0.380 OA
ATOM     22  H   SER A   2       1.698  25.922  63.802  0.00  0.00    +0.211 HD
ENDBRANCH  20  21
ENDBRANCH   5  20
ENDBRANCH   1   5
BRANCH   3  23
ATOM     23  CA  TYR A   3       1.428  30.597  60.300  0.00  0.00    +0.153 C 
BRANCH  23  24
ATOM     24  C   TYR A   3      -0.073  30.845  60.271  0.00  0.00    +0.241 C 
ATOM     25  N   GLY A   4      -0.469  32.105  60.445  0.00  0.00    -0.296 N 
ATOM     26  H   GLY A   4       0.255  32.831  60.620  0.00  0.00    +0.150 HD
ATOM     27  O   TYR A   3      -0.838  29.914  60.085  0.00  0.00    -0.273 OA
BRANCH  25  28
ATOM     28  CA  GLY A   4      -1.872  32.517  60.402  0.00  0.00    +0.163 C 
BRANCH  28  29
ATOM     29  C   GLY A   4      -2.072  33.660  59.425  0.00  0.00    +0.229 C 
ATOM     30  O   GLY A   4      -1.117  34.348  59.033  0.00  0.00    -0.286 OA
ENDBRANCH  28  29
ENDBRANCH  25  28
ENDBRANCH  23  24
BRANCH  23  31
ATOM     31  CB  TYR A   3       1.907  30.383  58.878  0.00  0.00    +0.055 C 
BRANCH  31  32
ATOM     32  CG  TYR A   3       3.380  30.074  58.717  0.00  0.00    -0.020 A 
ATOM     33  CD2 TYR A   3       4.342  30.738  59.456  0.00  0.00    -0.001 A 
ATOM     34  CE2 TYR A   3       5.721  30.464  59.263  0.00  0.00    +0.036 A 
ATOM     35  CZ  TYR A   3       6.090  29.557  58.307  0.00  0.00    +0.134 A 
ATOM     36  CE1 TYR A   3       5.152  28.907  57.559  0.00  0.00    +0.036 A 
ATOM     37  CD1 TYR A   3       3.804  29.173  57.753  0.00  0.00    -0.001 A 
BRANCH  35  38
ATOM     38  OH  TYR A   3       7.420  29.274  58.061  0.00  0.00    -0.506 OA
ATOM     39  HH  TYR A   3       7.988  29.810  58.669  0.00  0.00    +0.292 HD
ENDBRANCH  35  38
ENDBRANCH  31  32
ENDBRANCH  23  31
ENDBRANCH   3  23
TORSDOF 16
REMARK  Name = ../refined-set-2016/2v25/2v25_pocket.pdb
REMARK  147 active torsions:
REMARK  status: ('A' for Active; 'I' for Inactive)
REMARK    1  A    between atoms: _1  and  _3
REMARK    2  A    between atoms: _3  and  _4
REMARK    3  A    between atoms: _3  and  _6
REMARK    4  A    between atoms: _6  and  _7
REMARK    5  A    between atoms: _7  and  _8
REMARK    6  A    between atoms: _8  and  _9
REMARK    7  A    between atoms: _9  and  _10
REMARK    8  A    between atoms: _14  and  _16
REMARK    9  A    between atoms: _16  and  _17
REMARK   10  A    between atoms: _16  and  _19
REMARK   11  A    between atoms: _19  and  _20
REMARK   12  A    between atoms: _23  and  _25
REMARK   13  A    between atoms: _25  and  _26
REMARK   14  A    between atoms: _25  and  _28
REMARK   15  A    between atoms: _31  and  _33
REMARK   16  A    between atoms: _33  and  _34
REMARK   17  A    between atoms: _33  and  _36
REMARK   18  A    between atoms: _36  and  _37
REMARK   19  A    between atoms: _37  and  _38
REMARK   20  A    between atoms: _41  and  _43
REMARK   21  A    between atoms: _43  and  _44
REMARK   22  A    between atoms: _43  and  _46
REMARK   23  A    between atoms: _49  and  _51
REMARK   24  A    between atoms: _51  and  _52
REMARK   25  A    between atoms: _51  and  _54
REMARK   26  A    between atoms: _54  and  _55
REMARK   27  A    between atoms: _60  and  _62
REMARK   28  A    between atoms: _62  and  _63
REMARK   29  A    between atoms: _66  and  _68
REMARK   30  A    between atoms: _68  and  _69
REMARK   31  A    between atoms: _68  and  _71
REMARK   32  A    between atoms: _71  and  _72
REMARK   33  A    between atoms: _72  and  _73
REMARK   34  A    between atoms: _73  and  _74
REMARK   35  A    between atoms: _74  and  _75
REMARK   36  A    between atoms: _79  and  _81
REMARK   37  A    between atoms: _81  and  _82
REMARK   38  A    between atoms: _81  and  _84
REMARK   39  A    between atoms: _84  and  _85
REMARK   40  A    between atoms: _85  and  _86
REMARK   41  A    between atoms: _86  and  _87
REMARK   42  A    between atoms: _96  and  _98
REMARK   43  A    between atoms: _98  and  _99
REMARK   44  A    between atoms: _102  and  _104
REMARK   45  A    between atoms: _104  and  _105
REMARK   46  A    between atoms: _104  and  _107
REMARK   47  A    between atoms: _107  and  _108
REMARK   48  A    between atoms: _111  and  _113
REMARK   49  A    between atoms: _113  and  _114
REMARK   50  A    between atoms: _113  and  _116
REMARK   51  A    between atoms: _116  and  _117
REMARK   52  A    between atoms: _123  and  _125
REMARK   53  A    between atoms: _125  and  _126
REMARK   54  A    between atoms: _125  and  _128
REMARK   55  A    between atoms: _128  and  _129
REMARK   56  A    between atoms: _132  and  _134
REMARK   57  A    between atoms: _134  and  _135
REMARK   58  A    between atoms: _134  and  _137
REMARK   59  A    between atoms: _137  and  _138
REMARK   60  A    between atoms: _141  and  _143
REMARK   61  A    between atoms: _143  and  _144
REMARK   62  A    between atoms: _143  and  _146
REMARK   63  A    between atoms: _146  and  _147
REMARK   64  A    between atoms: _150  and  _152
REMARK   65  A    between atoms: _152  and  _153
REMARK   66  A    between atoms: _152  and  _155
REMARK   67  A    between atoms: _155  and  _156
REMARK   68  A    between atoms: _156  and  _157
REMARK   69  A    between atoms: _157  and  _158
REMARK   70  A    between atoms: _167  and  _169
REMARK   71  A    between atoms: _169  and  _170
REMARK   72  A    between atoms: _169  and  _172
REMARK   73  A    between atoms: _172  and  _173
REMARK   74  A    between atoms: _179  and  _181
REMARK   75  A    between atoms: _181  and  _182
REMARK   76  A    between atoms: _181  and  _184
REMARK   77  A    between atoms: _184  and  _185
REMARK   78  A    between atoms: _188  and  _190
REMARK   79  A    between atoms: _190  and  _191
REMARK   80  A    between atoms: _190  and  _193
REMARK   81  A    between atoms: _193  and  _194
REMARK   82  A    between atoms: _197  and  _199
REMARK   83  A    between atoms: _199  and  _200
REMARK   84  A    between atoms: _203  and  _205
REMARK   85  A    between atoms: _205  and  _206
REMARK   86  A    between atoms: _205  and  _208
REMARK   87  A    between atoms: _208  and  _209
REMARK   88  A    between atoms: _209  and  _210
REMARK   89  A    between atoms: _215  and  _217
REMARK   90  A    between atoms: _217  and  _218
REMARK   91  A    between atoms: _221  and  _223
REMARK   92  A    between atoms: _223  and  _224
REMARK   93  A    between atoms: _227  and  _229
REMARK   94  A    between atoms: _229  and  _230
REMARK   95  A    between atoms: _229  and  _232
REMARK   96  A    between atoms: _232  and  _233
REMARK   97  A    between atoms: _236  and  _238
REMARK   98  A    between atoms: _238  and  _239
REMARK   99  A    between atoms: _238  and  _241
REMARK  100  A    between atoms: _241  and  _242
REMARK  101  A    between atoms: _245  and  _247
REMARK  102  A    between atoms: _247  and  _248
REMARK  103  A    between atoms: _247  and  _250
REMARK  104  A    between atoms: _250  and  _251
REMARK  105  A    between atoms: _251  and  _252
REMARK  106  A    between atoms: _252  and  _253
REMARK  107  A    between atoms: _253  and  _254
REMARK  108  A    between atoms: _258  and  _260
REMARK  109  A    between atoms: _260  and  _261
REMARK  110  A    between atoms: _260  and  _263
REMARK  111  A    between atoms: _263  and  _264
REMARK  112  A    between atoms: _269  and  _270
REMARK  113  A    between atoms: _272  and  _274
REMARK  114  A    between atoms: _274  and  _275
REMARK  115  A    between atoms: _274  and  _277
REMARK  116  A    between atoms: _277  and  _278
REMARK  117  A    between atoms: _280  and  _282
REMARK  118  A    between atoms: _282  and  _283
REMARK  119  A    between atoms: _282  and  _285
REMARK  120  A    between atoms: _288  and  _290
REMARK  121  A    between atoms: _290  and  _291
REMARK  122  A    between atoms: _290  and  _293
REMARK  123  A    between atoms: _293  and  _294
REMARK  124  A    between atoms: _297  and  _299
REMARK  125  A    between atoms: _299  and  _300
REMARK  126  A    between atoms: _299  and  _302
REMARK  127  A    between atoms: _302  and  _303
REMARK  128  A    between atoms: _305  and  _307
REMARK  129  A    between atoms: _307  and  _308
REMARK  130  A    between atoms: _307  and  _310
REMARK  131  A    between atoms: _310  and  _311
REMARK  132  A    between atoms: _314  and  _316
REMARK  133  A    between atoms: _316  and  _317
REMARK  134  A    between atoms: _316  and  _319
REMARK  135  A    between atoms: _319  and  _320
REMARK  136  A    between atoms: _320  and  _321
REMARK  137  A    between atoms: _326  and  _328
REMARK  138  A    between atoms: _328  and  _329
REMARK  139  A    between atoms: _328  and  _331
REMARK  140  A    between atoms: _331  and  _332
REMARK  141  A    between atoms: _334  and  _336
REMARK  142  A    between atoms: _336  and  _337
REMARK  143  A    between atoms: _336  and  _339
REMARK  144  A    between atoms: _339  and  _340
REMARK  145  A    between atoms: _345  and  _346
REMARK  146  A    between atoms: _348  and  _350
REMARK  147  A    between atoms: _350  and  _351
REMARK                            x       y       z     vdW  Elec       q    Type
REMARK                         _______ _______ _______ _____ _____    ______ ____
ROOT
ATOM      1  O   HOH     1      11.451  38.330  52.392  0.00  0.00    +0.000 OA
ENDROOT
TORSDOF 0
REMARK  Name = ../refined-set-2016/2v25/2v25_pocket.pdb
REMARK  147 active torsions:
REMARK  status: ('A' for Active; 'I' for Inactive)
REMARK    1  A    between atoms: _1  and  _3
REMARK    2  A    between atoms: _3  and  _4
REMARK    3  A    between atoms: _3  and  _6
REMARK    4  A    between atoms: _6  and  _7
REMARK    5  A    between atoms: _7  and  _8
REMARK    6  A    between atoms: _8  and  _9
REMARK    7  A    between atoms: _9  and  _10
REMARK    8  A    between atoms: _14  and  _16
REMARK    9  A    between atoms: _16  and  _17
REMARK   10  A    between atoms: _16  and  _19
REMARK   11  A    between atoms: _19  and  _20
REMARK   12  A    between atoms: _23  and  _25
REMARK   13  A    between atoms: _25  and  _26
REMARK   14  A    between atoms: _25  and  _28
REMARK   15  A    between atoms: _31  and  _33
REMARK   16  A    between atoms: _33  and  _34
REMARK   17  A    between atoms: _33  and  _36
REMARK   18  A    between atoms: _36  and  _37
REMARK   19  A    between atoms: _37  and  _38
REMARK   20  A    between atoms: _41  and  _43
REMARK   21  A    between atoms: _43  and  _44
REMARK   22  A    between atoms: _43  and  _46
REMARK   23  A    between atoms: _49  and  _51
REMARK   24  A    between atoms: _51  and  _52
REMARK   25  A    between atoms: _51  and  _54
REMARK   26  A    between atoms: _54  and  _55
REMARK   27  A    between atoms: _60  and  _62
REMARK   28  A    between atoms: _62  and  _63
REMARK   29  A    between atoms: _66  and  _68
REMARK   30  A    between atoms: _68  and  _69
REMARK   31  A    between atoms: _68  and  _71
REMARK   32  A    between atoms: _71  and  _72
REMARK   33  A    between atoms: _72  and  _73
REMARK   34  A    between atoms: _73  and  _74
REMARK   35  A    between atoms: _74  and  _75
REMARK   36  A    between atoms: _79  and  _81
REMARK   37  A    between atoms: _81  and  _82
REMARK   38  A    between atoms: _81  and  _84
REMARK   39  A    between atoms: _84  and  _85
REMARK   40  A    between atoms: _85  and  _86
REMARK   41  A    between atoms: _86  and  _87
REMARK   42  A    between atoms: _96  and  _98
REMARK   43  A    between atoms: _98  and  _99
REMARK   44  A    between atoms: _102  and  _104
REMARK   45  A    between atoms: _104  and  _105
REMARK   46  A    between atoms: _104  and  _107
REMARK   47  A    between atoms: _107  and  _108
REMARK   48  A    between atoms: _111  and  _113
REMARK   49  A    between atoms: _113  and  _114
REMARK   50  A    between atoms: _113  and  _116
REMARK   51  A    between atoms: _116  and  _117
REMARK   52  A    between atoms: _123  and  _125
REMARK   53  A    between atoms: _125  and  _126
REMARK   54  A    between atoms: _125  and  _128
REMARK   55  A    between atoms: _128  and  _129
REMARK   56  A    between atoms: _132  and  _134
REMARK   57  A    between atoms: _134  and  _135
REMARK   58  A    between atoms: _134  and  _137
REMARK   59  A    between atoms: _137  and  _138
REMARK   60  A    between atoms: _141  and  _143
REMARK   61  A    between atoms: _143  and  _144
REMARK   62  A    between atoms: _143  and  _146
REMARK   63  A    between atoms: _146  and  _147
REMARK   64  A    between atoms: _150  and  _152
REMARK   65  A    between atoms: _152  and  _153
REMARK   66  A    between atoms: _152  and  _155
REMARK   67  A    between atoms: _155  and  _156
REMARK   68  A    between atoms: _156  and  _157
REMARK   69  A    between atoms: _157  and  _158
REMARK   70  A    between atoms: _167  and  _169
REMARK   71  A    between atoms: _169  and  _170
REMARK   72  A    between atoms: _169  and  _172
REMARK   73  A    between atoms: _172  and  _173
REMARK   74  A    between atoms: _179  and  _181
REMARK   75  A    between atoms: _181  and  _182
REMARK   76  A    between atoms: _181  and  _184
REMARK   77  A    between atoms: _184  and  _185
REMARK   78  A    between atoms: _188  and  _190
REMARK   79  A    between atoms: _190  and  _191
REMARK   80  A    between atoms: _190  and  _193
REMARK   81  A    between atoms: _193  and  _194
REMARK   82  A    between atoms: _197  and  _199
REMARK   83  A    between atoms: _199  and  _200
REMARK   84  A    between atoms: _203  and  _205
REMARK   85  A    between atoms: _205  and  _206
REMARK   86  A    between atoms: _205  and  _208
REMARK   87  A    between atoms: _208  and  _209
REMARK   88  A    between atoms: _209  and  _210
REMARK   89  A    between atoms: _215  and  _217
REMARK   90  A    between atoms: _217  and  _218
REMARK   91  A    between atoms: _221  and  _223
REMARK   92  A    between atoms: _223  and  _224
REMARK   93  A    between atoms: _227  and  _229
REMARK   94  A    between atoms: _229  and  _230
REMARK   95  A    between atoms: _229  and  _232
REMARK   96  A    between atoms: _232  and  _233
REMARK   97  A    between atoms: _236  and  _238
REMARK   98  A    between atoms: _238  and  _239
REMARK   99  A    between atoms: _238  and  _241
REMARK  100  A    between atoms: _241  and  _242
REMARK  101  A    between atoms: _245  and  _247
REMARK  102  A    between atoms: _247  and  _248
REMARK  103  A    between atoms: _247  and  _250
REMARK  104  A    between atoms: _250  and  _251
REMARK  105  A    between atoms: _251  and  _252
REMARK  106  A    between atoms: _252  and  _253
REMARK  107  A    between atoms: _253  and  _254
REMARK  108  A    between atoms: _258  and  _260
REMARK  109  A    between atoms: _260  and  _261
REMARK  110  A    between atoms: _260  and  _263
REMARK  111  A    between atoms: _263  and  _264
REMARK  112  A    between atoms: _269  and  _270
REMARK  113  A    between atoms: _272  and  _274
REMARK  114  A    between atoms: _274  and  _275
REMARK  115  A    between atoms: _274  and  _277
REMARK  116  A    between atoms: _277  and  _278
REMARK  117  A    between atoms: _280  and  _282
REMARK  118  A    between atoms: _282  and  _283
REMARK  119  A    between atoms: _282  and  _285
REMARK  120  A    between atoms: _288  and  _290
REMARK  121  A    between atoms: _290  and  _291
REMARK  122  A    between atoms: _290  and  _293
REMARK  123  A    between atoms: _293  and  _294
REMARK  124  A    between atoms: _297  and  _299
REMARK  125  A    between atoms: _299  and  _300
REMARK  126  A    between atoms: _299  and  _302
REMARK  127  A    between atoms: _302  and  _303
REMARK  128  A    between atoms: _305  and  _307
REMARK  129  A    between atoms: _307  and  _308
REMARK  130  A    between atoms: _307  and  _310
REMARK  131  A    between atoms: _310  and  _311
REMARK  132  A    between atoms: _314  and  _316
REMARK  133  A    between atoms: _316  and  _317
REMARK  134  A    between atoms: _316  and  _319
REMARK  135  A    between atoms: _319  and  _320
REMARK  136  A    between atoms: _320  and  _321
REMARK  137  A    between atoms: _326  and  _328
REMARK  138  A    between atoms: _328  and  _329
REMARK  139  A    between atoms: _328  and  _331
REMARK  140  A    between atoms: _331  and  _332
REMARK  141  A    between atoms: _334  and  _336
REMARK  142  A    between atoms: _336  and  _337
REMARK  143  A    between atoms: _336  and  _339
REMARK  144  A    between atoms: _339  and  _340
REMARK  145  A    between atoms: _345  and  _346
REMARK  146  A    between atoms: _348  and  _350
REMARK  147  A    between atoms: _350  and  _351
REMARK                            x       y       z     vdW  Elec       q    Type
REMARK                         _______ _______ _______ _____ _____    ______ ____
ROOT
ATOM      1  O   HOH     1      10.675  35.674  53.407  0.00  0.00    +0.000 OA
ENDROOT
TORSDOF 0
REMARK  Name = ../refined-set-2016/2v25/2v25_pocket.pdb
REMARK  147 active torsions:
REMARK  status: ('A' for Active; 'I' for Inactive)
REMARK    1  A    between atoms: _1  and  _3
REMARK    2  A    between atoms: _3  and  _4
REMARK    3  A    between atoms: _3  and  _6
REMARK    4  A    between atoms: _6  and  _7
REMARK    5  A    between atoms: _7  and  _8
REMARK    6  A    between atoms: _8  and  _9
REMARK    7  A    between atoms: _9  and  _10
REMARK    8  A    between atoms: _14  and  _16
REMARK    9  A    between atoms: _16  and  _17
REMARK   10  A    between atoms: _16  and  _19
REMARK   11  A    between atoms: _19  and  _20
REMARK   12  A    between atoms: _23  and  _25
REMARK   13  A    between atoms: _25  and  _26
REMARK   14  A    between atoms: _25  and  _28
REMARK   15  A    between atoms: _31  and  _33
REMARK   16  A    between atoms: _33  and  _34
REMARK   17  A    between atoms: _33  and  _36
REMARK   18  A    between atoms: _36  and  _37
REMARK   19  A    between atoms: _37  and  _38
REMARK   20  A    between atoms: _41  and  _43
REMARK   21  A    between atoms: _43  and  _44
REMARK   22  A    between atoms: _43  and  _46
REMARK   23  A    between atoms: _49  and  _51
REMARK   24  A    between atoms: _51  and  _52
REMARK   25  A    between atoms: _51  and  _54
REMARK   26  A    between atoms: _54  and  _55
REMARK   27  A    between atoms: _60  and  _62
REMARK   28  A    between atoms: _62  and  _63
REMARK   29  A    between atoms: _66  and  _68
REMARK   30  A    between atoms: _68  and  _69
REMARK   31  A    between atoms: _68  and  _71
REMARK   32  A    between atoms: _71  and  _72
REMARK   33  A    between atoms: _72  and  _73
REMARK   34  A    between atoms: _73  and  _74
REMARK   35  A    between atoms: _74  and  _75
REMARK   36  A    between atoms: _79  and  _81
REMARK   37  A    between atoms: _81  and  _82
REMARK   38  A    between atoms: _81  and  _84
REMARK   39  A    between atoms: _84  and  _85
REMARK   40  A    between atoms: _85  and  _86
REMARK   41  A    between atoms: _86  and  _87
REMARK   42  A    between atoms: _96  and  _98
REMARK   43  A    between atoms: _98  and  _99
REMARK   44  A    between atoms: _102  and  _104
REMARK   45  A    between atoms: _104  and  _105
REMARK   46  A    between atoms: _104  and  _107
REMARK   47  A    between atoms: _107  and  _108
REMARK   48  A    between atoms: _111  and  _113
REMARK   49  A    between atoms: _113  and  _114
REMARK   50  A    between atoms: _113  and  _116
REMARK   51  A    between atoms: _116  and  _117
REMARK   52  A    between atoms: _123  and  _125
REMARK   53  A    between atoms: _125  and  _126
REMARK   54  A    between atoms: _125  and  _128
REMARK   55  A    between atoms: _128  and  _129
REMARK   56  A    between atoms: _132  and  _134
REMARK   57  A    between atoms: _134  and  _135
REMARK   58  A    between atoms: _134  and  _137
REMARK   59  A    between atoms: _137  and  _138
REMARK   60  A    between atoms: _141  and  _143
REMARK   61  A    between atoms: _143  and  _144
REMARK   62  A    between atoms: _143  and  _146
REMARK   63  A    between atoms: _146  and  _147
REMARK   64  A    between atoms: _150  and  _152
REMARK   65  A    between atoms: _152  and  _153
REMARK   66  A    between atoms: _152  and  _155
REMARK   67  A    between atoms: _155  and  _156
REMARK   68  A    between atoms: _156  and  _157
REMARK   69  A    between atoms: _157  and  _158
REMARK   70  A    between atoms: _167  and  _169
REMARK   71  A    between atoms: _169  and  _170
REMARK   72  A    between atoms: _169  and  _172
REMARK   73  A    between atoms: _172  and  _173
REMARK   74  A    between atoms: _179  and  _181
REMARK   75  A    between atoms: _181  and  _182
REMARK   76  A    between atoms: _181  and  _184
REMARK   77  A    between atoms: _184  and  _185
REMARK   78  A    between atoms: _188  and  _190
REMARK   79  A    between atoms: _190  and  _191
REMARK   80  A    between atoms: _190  and  _193
REMARK   81  A    between atoms: _193  and  _194
REMARK   82  A    between atoms: _197  and  _199
REMARK   83  A    between atoms: _199  and  _200
REMARK   84  A    between atoms: _203  and  _205
REMARK   85  A    between atoms: _205  and  _206
REMARK   86  A    between atoms: _205  and  _208
REMARK   87  A    between atoms: _208  and  _209
REMARK   88  A    between atoms: _209  and  _210
REMARK   89  A    between atoms: _215  and  _217
REMARK   90  A    between atoms: _217  and  _218
REMARK   91  A    between atoms: _221  and  _223
REMARK   92  A    between atoms: _223  and  _224
REMARK   93  A    between atoms: _227  and  _229
REMARK   94  A    between atoms: _229  and  _230
REMARK   95  A    between atoms: _229  and  _232
REMARK   96  A    between atoms: _232  and  _233
REMARK   97  A    between atoms: _236  and  _238
REMARK   98  A    between atoms: _238  and  _239
REMARK   99  A    between atoms: _238  and  _241
REMARK  100  A    between atoms: _241  and  _242
REMARK  101  A    between atoms: _245  and  _247
REMARK  102  A    between atoms: _247  and  _248
REMARK  103  A    between atoms: _247  and  _250
REMARK  104  A    between atoms: _250  and  _251
REMARK  105  A    between atoms: _251  and  _252
REMARK  106  A    between atoms: _252  and  _253
REMARK  107  A    between atoms: _253  and  _254
REMARK  108  A    between atoms: _258  and  _260
REMARK  109  A    between atoms: _260  and  _261
REMARK  110  A    between atoms: _260  and  _263
REMARK  111  A    between atoms: _263  and  _264
REMARK  112  A    between atoms: _269  and  _270
REMARK  113  A    between atoms: _272  and  _274
REMARK  114  A    between atoms: _274  and  _275
REMARK  115  A    between atoms: _274  and  _277
REMARK  116  A    between atoms: _277  and  _278
REMARK  117  A    between atoms: _280  and  _282
REMARK  118  A    between atoms: _282  and  _283
REMARK  119  A    between atoms: _282  and  _285
REMARK  120  A    between atoms: _288  and  _290
REMARK  121  A    between atoms: _290  and  _291
REMARK  122  A    between atoms: _290  and  _293
REMARK  123  A    between atoms: _293  and  _294
REMARK  124  A    between atoms: _297  and  _299
REMARK  125  A    between atoms: _299  and  _300
REMARK  126  A    between atoms: _299  and  _302
REMARK  127  A    between atoms: _302  and  _303
REMARK  128  A    between atoms: _305  and  _307
REMARK  129  A    between atoms: _307  and  _308
REMARK  130  A    between atoms: _307  and  _310
REMARK  131  A    between atoms: _310  and  _311
REMARK  132  A    between atoms: _314  and  _316
REMARK  133  A    between atoms: _316  and  _317
REMARK  134  A    between atoms: _316  and  _319
REMARK  135  A    between atoms: _319  and  _320
REMARK  136  A    between atoms: _320  and  _321
REMARK  137  A    between atoms: _326  and  _328
REMARK  138  A    between atoms: _328  and  _329
REMARK  139  A    between atoms: _328  and  _331
REMARK  140  A    between atoms: _331  and  _332
REMARK  141  A    between atoms: _334  and  _336
REMARK  142  A    between atoms: _336  and  _337
REMARK  143  A    between atoms: _336  and  _339
REMARK  144  A    between atoms: _339  and  _340
REMARK  145  A    between atoms: _345  and  _346
REMARK  146  A    between atoms: _348  and  _350
REMARK  147  A    between atoms: _350  and  _351
REMARK                            x       y       z     vdW  Elec       q    Type
REMARK                         _______ _______ _______ _____ _____    ______ ____
ROOT
ATOM      1  O   HOH     1       8.758  35.557  69.482  0.00  0.00    +0.000 OA
ENDROOT
TORSDOF 0
REMARK  Name = ../refined-set-2016/2v25/2v25_pocket.pdb
REMARK  147 active torsions:
REMARK  status: ('A' for Active; 'I' for Inactive)
REMARK    1  A    between atoms: _1  and  _3
REMARK    2  A    between atoms: _3  and  _4
REMARK    3  A    between atoms: _3  and  _6
REMARK    4  A    between atoms: _6  and  _7
REMARK    5  A    between atoms: _7  and  _8
REMARK    6  A    between atoms: _8  and  _9
REMARK    7  A    between atoms: _9  and  _10
REMARK    8  A    between atoms: _14  and  _16
REMARK    9  A    between atoms: _16  and  _17
REMARK   10  A    between atoms: _16  and  _19
REMARK   11  A    between atoms: _19  and  _20
REMARK   12  A    between atoms: _23  and  _25
REMARK   13  A    between atoms: _25  and  _26
REMARK   14  A    between atoms: _25  and  _28
REMARK   15  A    between atoms: _31  and  _33
REMARK   16  A    between atoms: _33  and  _34
REMARK   17  A    between atoms: _33  and  _36
REMARK   18  A    between atoms: _36  and  _37
REMARK   19  A    between atoms: _37  and  _38
REMARK   20  A    between atoms: _41  and  _43
REMARK   21  A    between atoms: _43  and  _44
REMARK   22  A    between atoms: _43  and  _46
REMARK   23  A    between atoms: _49  and  _51
REMARK   24  A    between atoms: _51  and  _52
REMARK   25  A    between atoms: _51  and  _54
REMARK   26  A    between atoms: _54  and  _55
REMARK   27  A    between atoms: _60  and  _62
REMARK   28  A    between atoms: _62  and  _63
REMARK   29  A    between atoms: _66  and  _68
REMARK   30  A    between atoms: _68  and  _69
REMARK   31  A    between atoms: _68  and  _71
REMARK   32  A    between atoms: _71  and  _72
REMARK   33  A    between atoms: _72  and  _73
REMARK   34  A    between atoms: _73  and  _74
REMARK   35  A    between atoms: _74  and  _75
REMARK   36  A    between atoms: _79  and  _81
REMARK   37  A    between atoms: _81  and  _82
REMARK   38  A    between atoms: _81  and  _84
REMARK   39  A    between atoms: _84  and  _85
REMARK   40  A    between atoms: _85  and  _86
REMARK   41  A    between atoms: _86  and  _87
REMARK   42  A    between atoms: _96  and  _98
REMARK   43  A    between atoms: _98  and  _99
REMARK   44  A    between atoms: _102  and  _104
REMARK   45  A    between atoms: _104  and  _105
REMARK   46  A    between atoms: _104  and  _107
REMARK   47  A    between atoms: _107  and  _108
REMARK   48  A    between atoms: _111  and  _113
REMARK   49  A    between atoms: _113  and  _114
REMARK   50  A    between atoms: _113  and  _116
REMARK   51  A    between atoms: _116  and  _117
REMARK   52  A    between atoms: _123  and  _125
REMARK   53  A    between atoms: _125  and  _126
REMARK   54  A    between atoms: _125  and  _128
REMARK   55  A    between atoms: _128  and  _129
REMARK   56  A    between atoms: _132  and  _134
REMARK   57  A    between atoms: _134  and  _135
REMARK   58  A    between atoms: _134  and  _137
REMARK   59  A    between atoms: _137  and  _138
REMARK   60  A    between atoms: _141  and  _143
REMARK   61  A    between atoms: _143  and  _144
REMARK   62  A    between atoms: _143  and  _146
REMARK   63  A    between atoms: _146  and  _147
REMARK   64  A    between atoms: _150  and  _152
REMARK   65  A    between atoms: _152  and  _153
REMARK   66  A    between atoms: _152  and  _155
REMARK   67  A    between atoms: _155  and  _156
REMARK   68  A    between atoms: _156  and  _157
REMARK   69  A    between atoms: _157  and  _158
REMARK   70  A    between atoms: _167  and  _169
REMARK   71  A    between atoms: _169  and  _170
REMARK   72  A    between atoms: _169  and  _172
REMARK   73  A    between atoms: _172  and  _173
REMARK   74  A    between atoms: _179  and  _181
REMARK   75  A    between atoms: _181  and  _182
REMARK   76  A    between atoms: _181  and  _184
REMARK   77  A    between atoms: _184  and  _185
REMARK   78  A    between atoms: _188  and  _190
REMARK   79  A    between atoms: _190  and  _191
REMARK   80  A    between atoms: _190  and  _193
REMARK   81  A    between atoms: _193  and  _194
REMARK   82  A    between atoms: _197  and  _199
REMARK   83  A    between atoms: _199  and  _200
REMARK   84  A    between atoms: _203  and  _205
REMARK   85  A    between atoms: _205  and  _206
REMARK   86  A    between atoms: _205  and  _208
REMARK   87  A    between atoms: _208  and  _209
REMARK   88  A    between atoms: _209  and  _210
REMARK   89  A    between atoms: _215  and  _217
REMARK   90  A    between atoms: _217  and  _218
REMARK   91  A    between atoms: _221  and  _223
REMARK   92  A    between atoms: _223  and  _224
REMARK   93  A    between atoms: _227  and  _229
REMARK   94  A    between atoms: _229  and  _230
REMARK   95  A    between atoms: _229  and  _232
REMARK   96  A    between atoms: _232  and  _233
REMARK   97  A    between atoms: _236  and  _238
REMARK   98  A    between atoms: _238  and  _239
REMARK   99  A    between atoms: _238  and  _241
REMARK  100  A    between atoms: _241  and  _242
REMARK  101  A    between atoms: _245  and  _247
REMARK  102  A    between atoms: _247  and  _248
REMARK  103  A    between atoms: _247  and  _250
REMARK  104  A    between atoms: _250  and  _251
REMARK  105  A    between atoms: _251  and  _252
REMARK  106  A    between atoms: _252  and  _253
REMARK  107  A    between atoms: _253  and  _254
REMARK  108  A    between atoms: _258  and  _260
REMARK  109  A    between atoms: _260  and  _261
REMARK  110  A    between atoms: _260  and  _263
REMARK  111  A    between atoms: _263  and  _264
REMARK  112  A    between atoms: _269  and  _270
REMARK  113  A    between atoms: _272  and  _274
REMARK  114  A    between atoms: _274  and  _275
REMARK  115  A    between atoms: _274  and  _277
REMARK  116  A    between atoms: _277  and  _278
REMARK  117  A    between atoms: _280  and  _282
REMARK  118  A    between atoms: _282  and  _283
REMARK  119  A    between atoms: _282  and  _285
REMARK  120  A    between atoms: _288  and  _290
REMARK  121  A    between atoms: _290  and  _291
REMARK  122  A    between atoms: _290  and  _293
REMARK  123  A    between atoms: _293  and  _294
REMARK  124  A    between atoms: _297  and  _299
REMARK  125  A    between atoms: _299  and  _300
REMARK  126  A    between atoms: _299  and  _302
REMARK  127  A    between atoms: _302  and  _303
REMARK  128  A    between atoms: _305  and  _307
REMARK  129  A    between atoms: _307  and  _308
REMARK  130  A    between atoms: _307  and  _310
REMARK  131  A    between atoms: _310  and  _311
REMARK  132  A    between atoms: _314  and  _316
REMARK  133  A    between atoms: _316  and  _317
REMARK  134  A    between atoms: _316  and  _319
REMARK  135  A    between atoms: _319  and  _320
REMARK  136  A    between atoms: _320  and  _321
REMARK  137  A    between atoms: _326  and  _328
REMARK  138  A    between atoms: _328  and  _329
REMARK  139  A    between atoms: _328  and  _331
REMARK  140  A    between atoms: _331  and  _332
REMARK  141  A    between atoms: _334  and  _336
REMARK  142  A    between atoms: _336  and  _337
REMARK  143  A    between atoms: _336  and  _339
REMARK  144  A    between atoms: _339  and  _340
REMARK  145  A    between atoms: _345  and  _346
REMARK  146  A    between atoms: _348  and  _350
REMARK  147  A    between atoms: _350  and  _351
REMARK                            x       y       z     vdW  Elec       q    Type
REMARK                         _______ _______ _______ _____ _____    ______ ____
ROOT
ATOM      1  O   HOH     1      10.676  37.413  69.175  0.00  0.00    +0.000 OA
ENDROOT
TORSDOF 0
REMARK  Name = ../refined-set-2016/2v25/2v25_pocket.pdb
REMARK  147 active torsions:
REMARK  status: ('A' for Active; 'I' for Inactive)
REMARK    1  A    between atoms: _1  and  _3
REMARK    2  A    between atoms: _3  and  _4
REMARK    3  A    between atoms: _3  and  _6
REMARK    4  A    between atoms: _6  and  _7
REMARK    5  A    between atoms: _7  and  _8
REMARK    6  A    between atoms: _8  and  _9
REMARK    7  A    between atoms: _9  and  _10
REMARK    8  A    between atoms: _14  and  _16
REMARK    9  A    between atoms: _16  and  _17
REMARK   10  A    between atoms: _16  and  _19
REMARK   11  A    between atoms: _19  and  _20
REMARK   12  A    between atoms: _23  and  _25
REMARK   13  A    between atoms: _25  and  _26
REMARK   14  A    between atoms: _25  and  _28
REMARK   15  A    between atoms: _31  and  _33
REMARK   16  A    between atoms: _33  and  _34
REMARK   17  A    between atoms: _33  and  _36
REMARK   18  A    between atoms: _36  and  _37
REMARK   19  A    between atoms: _37  and  _38
REMARK   20  A    between atoms: _41  and  _43
REMARK   21  A    between atoms: _43  and  _44
REMARK   22  A    between atoms: _43  and  _46
REMARK   23  A    between atoms: _49  and  _51
REMARK   24  A    between atoms: _51  and  _52
REMARK   25  A    between atoms: _51  and  _54
REMARK   26  A    between atoms: _54  and  _55
REMARK   27  A    between atoms: _60  and  _62
REMARK   28  A    between atoms: _62  and  _63
REMARK   29  A    between atoms: _66  and  _68
REMARK   30  A    between atoms: _68  and  _69
REMARK   31  A    between atoms: _68  and  _71
REMARK   32  A    between atoms: _71  and  _72
REMARK   33  A    between atoms: _72  and  _73
REMARK   34  A    between atoms: _73  and  _74
REMARK   35  A    between atoms: _74  and  _75
REMARK   36  A    between atoms: _79  and  _81
REMARK   37  A    between atoms: _81  and  _82
REMARK   38  A    between atoms: _81  and  _84
REMARK   39  A    between atoms: _84  and  _85
REMARK   40  A    between atoms: _85  and  _86
REMARK   41  A    between atoms: _86  and  _87
REMARK   42  A    between atoms: _96  and  _98
REMARK   43  A    between atoms: _98  and  _99
REMARK   44  A    between atoms: _102  and  _104
REMARK   45  A    between atoms: _104  and  _105
REMARK   46  A    between atoms: _104  and  _107
REMARK   47  A    between atoms: _107  and  _108
REMARK   48  A    between atoms: _111  and  _113
REMARK   49  A    between atoms: _113  and  _114
REMARK   50  A    between atoms: _113  and  _116
REMARK   51  A    between atoms: _116  and  _117
REMARK   52  A    between atoms: _123  and  _125
REMARK   53  A    between atoms: _125  and  _126
REMARK   54  A    between atoms: _125  and  _128
REMARK   55  A    between atoms: _128  and  _129
REMARK   56  A    between atoms: _132  and  _134
REMARK   57  A    between atoms: _134  and  _135
REMARK   58  A    between atoms: _134  and  _137
REMARK   59  A    between atoms: _137  and  _138
REMARK   60  A    between atoms: _141  and  _143
REMARK   61  A    between atoms: _143  and  _144
REMARK   62  A    between atoms: _143  and  _146
REMARK   63  A    between atoms: _146  and  _147
REMARK   64  A    between atoms: _150  and  _152
REMARK   65  A    between atoms: _152  and  _153
REMARK   66  A    between atoms: _152  and  _155
REMARK   67  A    between atoms: _155  and  _156
REMARK   68  A    between atoms: _156  and  _157
REMARK   69  A    between atoms: _157  and  _158
REMARK   70  A    between atoms: _167  and  _169
REMARK   71  A    between atoms: _169  and  _170
REMARK   72  A    between atoms: _169  and  _172
REMARK   73  A    between atoms: _172  and  _173
REMARK   74  A    between atoms: _179  and  _181
REMARK   75  A    between atoms: _181  and  _182
REMARK   76  A    between atoms: _181  and  _184
REMARK   77  A    between atoms: _184  and  _185
REMARK   78  A    between atoms: _188  and  _190
REMARK   79  A    between atoms: _190  and  _191
REMARK   80  A    between atoms: _190  and  _193
REMARK   81  A    between atoms: _193  and  _194
REMARK   82  A    between atoms: _197  and  _199
REMARK   83  A    between atoms: _199  and  _200
REMARK   84  A    between atoms: _203  and  _205
REMARK   85  A    between atoms: _205  and  _206
REMARK   86  A    between atoms: _205  and  _208
REMARK   87  A    between atoms: _208  and  _209
REMARK   88  A    between atoms: _209  and  _210
REMARK   89  A    between atoms: _215  and  _217
REMARK   90  A    between atoms: _217  and  _218
REMARK   91  A    between atoms: _221  and  _223
REMARK   92  A    between atoms: _223  and  _224
REMARK   93  A    between atoms: _227  and  _229
REMARK   94  A    between atoms: _229  and  _230
REMARK   95  A    between atoms: _229  and  _232
REMARK   96  A    between atoms: _232  and  _233
REMARK   97  A    between atoms: _236  and  _238
REMARK   98  A    between atoms: _238  and  _239
REMARK   99  A    between atoms: _238  and  _241
REMARK  100  A    between atoms: _241  and  _242
REMARK  101  A    between atoms: _245  and  _247
REMARK  102  A    between atoms: _247  and  _248
REMARK  103  A    between atoms: _247  and  _250
REMARK  104  A    between atoms: _250  and  _251
REMARK  105  A    between atoms: _251  and  _252
REMARK  106  A    between atoms: _252  and  _253
REMARK  107  A    between atoms: _253  and  _254
REMARK  108  A    between atoms: _258  and  _260
REMARK  109  A    between atoms: _260  and  _261
REMARK  110  A    between atoms: _260  and  _263
REMARK  111  A    between atoms: _263  and  _264
REMARK  112  A    between atoms: _269  and  _270
REMARK  113  A    between atoms: _272  and  _274
REMARK  114  A    between atoms: _274  and  _275
REMARK  115  A    between atoms: _274  and  _277
REMARK  116  A    between atoms: _277  and  _278
REMARK  117  A    between atoms: _280  and  _282
REMARK  118  A    between atoms: _282  and  _283
REMARK  119  A    between atoms: _282  and  _285
REMARK  120  A    between atoms: _288  and  _290
REMARK  121  A    between atoms: _290  and  _291
REMARK  122  A    between atoms: _290  and  _293
REMARK  123  A    between atoms: _293  and  _294
REMARK  124  A    between atoms: _297  and  _299
REMARK  125  A    between atoms: _299  and  _300
REMARK  126  A    between atoms: _299  and  _302
REMARK  127  A    between atoms: _302  and  _303
REMARK  128  A    between atoms: _305  and  _307
REMARK  129  A    between atoms: _307  and  _308
REMARK  130  A    between atoms: _307  and  _310
REMARK  131  A    between atoms: _310  and  _311
REMARK  132  A    between atoms: _314  and  _316
REMARK  133  A    between atoms: _316  and  _317
REMARK  134  A    between atoms: _316  and  _319
REMARK  135  A    between atoms: _319  and  _320
REMARK  136  A    between atoms: _320  and  _321
REMARK  137  A    between atoms: _326  and  _328
REMARK  138  A    between atoms: _328  and  _329
REMARK  139  A    between atoms: _328  and  _331
REMARK  140  A    between atoms: _331  and  _332
REMARK  141  A    between atoms: _334  and  _336
REMARK  142  A    between atoms: _336  and  _337
REMARK  143  A    between atoms: _336  and  _339
REMARK  144  A    between atoms: _339  and  _340
REMARK  145  A    between atoms: _345  and  _346
REMARK  146  A    between atoms: _348  and  _350
REMARK  147  A    between atoms: _350  and  _351
REMARK                            x       y       z     vdW  Elec       q    Type
REMARK                         _______ _______ _______ _____ _____    ______ ____
ROOT
ATOM      1  O   HOH     1       9.395  39.104  50.605  0.00  0.00    +0.000 OA
ENDROOT
TORSDOF 0
REMARK  Name = ../refined-set-2016/2v25/2v25_pocket.pdb
REMARK  147 active torsions:
REMARK  status: ('A' for Active; 'I' for Inactive)
REMARK    1  A    between atoms: _1  and  _3
REMARK    2  A    between atoms: _3  and  _4
REMARK    3  A    between atoms: _3  and  _6
REMARK    4  A    between atoms: _6  and  _7
REMARK    5  A    between atoms: _7  and  _8
REMARK    6  A    between atoms: _8  and  _9
REMARK    7  A    between atoms: _9  and  _10
REMARK    8  A    between atoms: _14  and  _16
REMARK    9  A    between atoms: _16  and  _17
REMARK   10  A    between atoms: _16  and  _19
REMARK   11  A    between atoms: _19  and  _20
REMARK   12  A    between atoms: _23  and  _25
REMARK   13  A    between atoms: _25  and  _26
REMARK   14  A    between atoms: _25  and  _28
REMARK   15  A    between atoms: _31  and  _33
REMARK   16  A    between atoms: _33  and  _34
REMARK   17  A    between atoms: _33  and  _36
REMARK   18  A    between atoms: _36  and  _37
REMARK   19  A    between atoms: _37  and  _38
REMARK   20  A    between atoms: _41  and  _43
REMARK   21  A    between atoms: _43  and  _44
REMARK   22  A    between atoms: _43  and  _46
REMARK   23  A    between atoms: _49  and  _51
REMARK   24  A    between atoms: _51  and  _52
REMARK   25  A    between atoms: _51  and  _54
REMARK   26  A    between atoms: _54  and  _55
REMARK   27  A    between atoms: _60  and  _62
REMARK   28  A    between atoms: _62  and  _63
REMARK   29  A    between atoms: _66  and  _68
REMARK   30  A    between atoms: _68  and  _69
REMARK   31  A    between atoms: _68  and  _71
REMARK   32  A    between atoms: _71  and  _72
REMARK   33  A    between atoms: _72  and  _73
REMARK   34  A    between atoms: _73  and  _74
REMARK   35  A    between atoms: _74  and  _75
REMARK   36  A    between atoms: _79  and  _81
REMARK   37  A    between atoms: _81  and  _82
REMARK   38  A    between atoms: _81  and  _84
REMARK   39  A    between atoms: _84  and  _85
REMARK   40  A    between atoms: _85  and  _86
REMARK   41  A    between atoms: _86  and  _87
REMARK   42  A    between atoms: _96  and  _98
REMARK   43  A    between atoms: _98  and  _99
REMARK   44  A    between atoms: _102  and  _104
REMARK   45  A    between atoms: _104  and  _105
REMARK   46  A    between atoms: _104  and  _107
REMARK   47  A    between atoms: _107  and  _108
REMARK   48  A    between atoms: _111  and  _113
REMARK   49  A    between atoms: _113  and  _114
REMARK   50  A    between atoms: _113  and  _116
REMARK   51  A    between atoms: _116  and  _117
REMARK   52  A    between atoms: _123  and  _125
REMARK   53  A    between atoms: _125  and  _126
REMARK   54  A    between atoms: _125  and  _128
REMARK   55  A    between atoms: _128  and  _129
REMARK   56  A    between atoms: _132  and  _134
REMARK   57  A    between atoms: _134  and  _135
REMARK   58  A    between atoms: _134  and  _137
REMARK   59  A    between atoms: _137  and  _138
REMARK   60  A    between atoms: _141  and  _143
REMARK   61  A    between atoms: _143  and  _144
REMARK   62  A    between atoms: _143  and  _146
REMARK   63  A    between atoms: _146  and  _147
REMARK   64  A    between atoms: _150  and  _152
REMARK   65  A    between atoms: _152  and  _153
REMARK   66  A    between atoms: _152  and  _155
REMARK   67  A    between atoms: _155  and  _156
REMARK   68  A    between atoms: _156  and  _157
REMARK   69  A    between atoms: _157  and  _158
REMARK   70  A    between atoms: _167  and  _169
REMARK   71  A    between atoms: _169  and  _170
REMARK   72  A    between atoms: _169  and  _172
REMARK   73  A    between atoms: _172  and  _173
REMARK   74  A    between atoms: _179  and  _181
REMARK   75  A    between atoms: _181  and  _182
REMARK   76  A    between atoms: _181  and  _184
REMARK   77  A    between atoms: _184  and  _185
REMARK   78  A    between atoms: _188  and  _190
REMARK   79  A    between atoms: _190  and  _191
REMARK   80  A    between atoms: _190  and  _193
REMARK   81  A    between atoms: _193  and  _194
REMARK   82  A    between atoms: _197  and  _199
REMARK   83  A    between atoms: _199  and  _200
REMARK   84  A    between atoms: _203  and  _205
REMARK   85  A    between atoms: _205  and  _206
REMARK   86  A    between atoms: _205  and  _208
REMARK   87  A    between atoms: _208  and  _209
REMARK   88  A    between atoms: _209  and  _210
REMARK   89  A    between atoms: _215  and  _217
REMARK   90  A    between atoms: _217  and  _218
REMARK   91  A    between atoms: _221  and  _223
REMARK   92  A    between atoms: _223  and  _224
REMARK   93  A    between atoms: _227  and  _229
REMARK   94  A    between atoms: _229  and  _230
REMARK   95  A    between atoms: _229  and  _232
REMARK   96  A    between atoms: _232  and  _233
REMARK   97  A    between atoms: _236  and  _238
REMARK   98  A    between atoms: _238  and  _239
REMARK   99  A    between atoms: _238  and  _241
REMARK  100  A    between atoms: _241  and  _242
REMARK  101  A    between atoms: _245  and  _247
REMARK  102  A    between atoms: _247  and  _248
REMARK  103  A    between atoms: _247  and  _250
REMARK  104  A    between atoms: _250  and  _251
REMARK  105  A    between atoms: _251  and  _252
REMARK  106  A    between atoms: _252  and  _253
REMARK  107  A    between atoms: _253  and  _254
REMARK  108  A    between atoms: _258  and  _260
REMARK  109  A    between atoms: _260  and  _261
REMARK  110  A    between atoms: _260  and  _263
REMARK  111  A    between atoms: _263  and  _264
REMARK  112  A    between atoms: _269  and  _270
REMARK  113  A    between atoms: _272  and  _274
REMARK  114  A    between atoms: _274  and  _275
REMARK  115  A    between atoms: _274  and  _277
REMARK  116  A    between atoms: _277  and  _278
REMARK  117  A    between atoms: _280  and  _282
REMARK  118  A    between atoms: _282  and  _283
REMARK  119  A    between atoms: _282  and  _285
REMARK  120  A    between atoms: _288  and  _290
REMARK  121  A    between atoms: _290  and  _291
REMARK  122  A    between atoms: _290  and  _293
REMARK  123  A    between atoms: _293  and  _294
REMARK  124  A    between atoms: _297  and  _299
REMARK  125  A    between atoms: _299  and  _300
REMARK  126  A    between atoms: _299  and  _302
REMARK  127  A    between atoms: _302  and  _303
REMARK  128  A    between atoms: _305  and  _307
REMARK  129  A    between atoms: _307  and  _308
REMARK  130  A    between atoms: _307  and  _310
REMARK  131  A    between atoms: _310  and  _311
REMARK  132  A    between atoms: _314  and  _316
REMARK  133  A    between atoms: _316  and  _317
REMARK  134  A    between atoms: _316  and  _319
REMARK  135  A    between atoms: _319  and  _320
REMARK  136  A    between atoms: _320  and  _321
REMARK  137  A    between atoms: _326  and  _328
REMARK  138  A    between atoms: _328  and  _329
REMARK  139  A    between atoms: _328  and  _331
REMARK  140  A    between atoms: _331  and  _332
REMARK  141  A    between atoms: _334  and  _336
REMARK  142  A    between atoms: _336  and  _337
REMARK  143  A    between atoms: _336  and  _339
REMARK  144  A    between atoms: _339  and  _340
REMARK  145  A    between atoms: _345  and  _346
REMARK  146  A    between atoms: _348  and  _350
REMARK  147  A    between atoms: _350  and  _351
REMARK                            x       y       z     vdW  Elec       q    Type
REMARK                         _______ _______ _______ _____ _____    ______ ____
ROOT
ATOM      1  O   HOH     1       6.834  40.851  61.620  0.00  0.00    +0.000 OA
ENDROOT
TORSDOF 0
REMARK  Name = ../refined-set-2016/2v25/2v25_pocket.pdb
REMARK  147 active torsions:
REMARK  status: ('A' for Active; 'I' for Inactive)
REMARK    1  A    between atoms: _1  and  _3
REMARK    2  A    between atoms: _3  and  _4
REMARK    3  A    between atoms: _3  and  _6
REMARK    4  A    between atoms: _6  and  _7
REMARK    5  A    between atoms: _7  and  _8
REMARK    6  A    between atoms: _8  and  _9
REMARK    7  A    between atoms: _9  and  _10
REMARK    8  A    between atoms: _14  and  _16
REMARK    9  A    between atoms: _16  and  _17
REMARK   10  A    between atoms: _16  and  _19
REMARK   11  A    between atoms: _19  and  _20
REMARK   12  A    between atoms: _23  and  _25
REMARK   13  A    between atoms: _25  and  _26
REMARK   14  A    between atoms: _25  and  _28
REMARK   15  A    between atoms: _31  and  _33
REMARK   16  A    between atoms: _33  and  _34
REMARK   17  A    between atoms: _33  and  _36
REMARK   18  A    between atoms: _36  and  _37
REMARK   19  A    between atoms: _37  and  _38
REMARK   20  A    between atoms: _41  and  _43
REMARK   21  A    between atoms: _43  and  _44
REMARK   22  A    between atoms: _43  and  _46
REMARK   23  A    between atoms: _49  and  _51
REMARK   24  A    between atoms: _51  and  _52
REMARK   25  A    between atoms: _51  and  _54
REMARK   26  A    between atoms: _54  and  _55
REMARK   27  A    between atoms: _60  and  _62
REMARK   28  A    between atoms: _62  and  _63
REMARK   29  A    between atoms: _66  and  _68
REMARK   30  A    between atoms: _68  and  _69
REMARK   31  A    between atoms: _68  and  _71
REMARK   32  A    between atoms: _71  and  _72
REMARK   33  A    between atoms: _72  and  _73
REMARK   34  A    between atoms: _73  and  _74
REMARK   35  A    between atoms: _74  and  _75
REMARK   36  A    between atoms: _79  and  _81
REMARK   37  A    between atoms: _81  and  _82
REMARK   38  A    between atoms: _81  and  _84
REMARK   39  A    between atoms: _84  and  _85
REMARK   40  A    between atoms: _85  and  _86
REMARK   41  A    between atoms: _86  and  _87
REMARK   42  A    between atoms: _96  and  _98
REMARK   43  A    between atoms: _98  and  _99
REMARK   44  A    between atoms: _102  and  _104
REMARK   45  A    between atoms: _104  and  _105
REMARK   46  A    between atoms: _104  and  _107
REMARK   47  A    between atoms: _107  and  _108
REMARK   48  A    between atoms: _111  and  _113
REMARK   49  A    between atoms: _113  and  _114
REMARK   50  A    between atoms: _113  and  _116
REMARK   51  A    between atoms: _116  and  _117
REMARK   52  A    between atoms: _123  and  _125
REMARK   53  A    between atoms: _125  and  _126
REMARK   54  A    between atoms: _125  and  _128
REMARK   55  A    between atoms: _128  and  _129
REMARK   56  A    between atoms: _132  and  _134
REMARK   57  A    between atoms: _134  and  _135
REMARK   58  A    between atoms: _134  and  _137
REMARK   59  A    between atoms: _137  and  _138
REMARK   60  A    between atoms: _141  and  _143
REMARK   61  A    between atoms: _143  and  _144
REMARK   62  A    between atoms: _143  and  _146
REMARK   63  A    between atoms: _146  and  _147
REMARK   64  A    between atoms: _150  and  _152
REMARK   65  A    between atoms: _152  and  _153
REMARK   66  A    between atoms: _152  and  _155
REMARK   67  A    between atoms: _155  and  _156
REMARK   68  A    between atoms: _156  and  _157
REMARK   69  A    between atoms: _157  and  _158
REMARK   70  A    between atoms: _167  and  _169
REMARK   71  A    between atoms: _169  and  _170
REMARK   72  A    between atoms: _169  and  _172
REMARK   73  A    between atoms: _172  and  _173
REMARK   74  A    between atoms: _179  and  _181
REMARK   75  A    between atoms: _181  and  _182
REMARK   76  A    between atoms: _181  and  _184
REMARK   77  A    between atoms: _184  and  _185
REMARK   78  A    between atoms: _188  and  _190
REMARK   79  A    between atoms: _190  and  _191
REMARK   80  A    between atoms: _190  and  _193
REMARK   81  A    between atoms: _193  and  _194
REMARK   82  A    between atoms: _197  and  _199
REMARK   83  A    between atoms: _199  and  _200
REMARK   84  A    between atoms: _203  and  _205
REMARK   85  A    between atoms: _205  and  _206
REMARK   86  A    between atoms: _205  and  _208
REMARK   87  A    between atoms: _208  and  _209
REMARK   88  A    between atoms: _209  and  _210
REMARK   89  A    between atoms: _215  and  _217
REMARK   90  A    between atoms: _217  and  _218
REMARK   91  A    between atoms: _221  and  _223
REMARK   92  A    between atoms: _223  and  _224
REMARK   93  A    between atoms: _227  and  _229
REMARK   94  A    between atoms: _229  and  _230
REMARK   95  A    between atoms: _229  and  _232
REMARK   96  A    between atoms: _232  and  _233
REMARK   97  A    between atoms: _236  and  _238
REMARK   98  A    between atoms: _238  and  _239
REMARK   99  A    between atoms: _238  and  _241
REMARK  100  A    between atoms: _241  and  _242
REMARK  101  A    between atoms: _245  and  _247
REMARK  102  A    between atoms: _247  and  _248
REMARK  103  A    between atoms: _247  and  _250
REMARK  104  A    between atoms: _250  and  _251
REMARK  105  A    between atoms: _251  and  _252
REMARK  106  A    between atoms: _252  and  _253
REMARK  107  A    between atoms: _253  and  _254
REMARK  108  A    between atoms: _258  and  _260
REMARK  109  A    between atoms: _260  and  _261
REMARK  110  A    between atoms: _260  and  _263
REMARK  111  A    between atoms: _263  and  _264
REMARK  112  A    between atoms: _269  and  _270
REMARK  113  A    between atoms: _272  and  _274
REMARK  114  A    between atoms: _274  and  _275
REMARK  115  A    between atoms: _274  and  _277
REMARK  116  A    between atoms: _277  and  _278
REMARK  117  A    between atoms: _280  and  _282
REMARK  118  A    between atoms: _282  and  _283
REMARK  119  A    between atoms: _282  and  _285
REMARK  120  A    between atoms: _288  and  _290
REMARK  121  A    between atoms: _290  and  _291
REMARK  122  A    between atoms: _290  and  _293
REMARK  123  A    between atoms: _293  and  _294
REMARK  124  A    between atoms: _297  and  _299
REMARK  125  A    between atoms: _299  and  _300
REMARK  126  A    between atoms: _299  and  _302
REMARK  127  A    between atoms: _302  and  _303
REMARK  128  A    between atoms: _305  and  _307
REMARK  129  A    between atoms: _307  and  _308
REMARK  130  A    between atoms: _307  and  _310
REMARK  131  A    between atoms: _310  and  _311
REMARK  132  A    between atoms: _314  and  _316
REMARK  133  A    between atoms: _316  and  _317
REMARK  134  A    between atoms: _316  and  _319
REMARK  135  A    between atoms: _319  and  _320
REMARK  136  A    between atoms: _320  and  _321
REMARK  137  A    between atoms: _326  and  _328
REMARK  138  A    between atoms: _328  and  _329
REMARK  139  A    between atoms: _328  and  _331
REMARK  140  A    between atoms: _331  and  _332
REMARK  141  A    between atoms: _334  and  _336
REMARK  142  A    between atoms: _336  and  _337
REMARK  143  A    between atoms: _336  and  _339
REMARK  144  A    between atoms: _339  and  _340
REMARK  145  A    between atoms: _345  and  _346
REMARK  146  A    between atoms: _348  and  _350
REMARK  147  A    between atoms: _350  and  _351
REMARK                            x       y       z     vdW  Elec       q    Type
REMARK                         _______ _______ _______ _____ _____    ______ ____
ROOT
ATOM      1  O   HOH     1      12.445  39.922  56.390  0.00  0.00    +0.000 OA
ENDROOT
TORSDOF 0
REMARK  Name = ../refined-set-2016/2v25/2v25_pocket.pdb
REMARK  147 active torsions:
REMARK  status: ('A' for Active; 'I' for Inactive)
REMARK    1  A    between atoms: _1  and  _3
REMARK    2  A    between atoms: _3  and  _4
REMARK    3  A    between atoms: _3  and  _6
REMARK    4  A    between atoms: _6  and  _7
REMARK    5  A    between atoms: _7  and  _8
REMARK    6  A    between atoms: _8  and  _9
REMARK    7  A    between atoms: _9  and  _10
REMARK    8  A    between atoms: _14  and  _16
REMARK    9  A    between atoms: _16  and  _17
REMARK   10  A    between atoms: _16  and  _19
REMARK   11  A    between atoms: _19  and  _20
REMARK   12  A    between atoms: _23  and  _25
REMARK   13  A    between atoms: _25  and  _26
REMARK   14  A    between atoms: _25  and  _28
REMARK   15  A    between atoms: _31  and  _33
REMARK   16  A    between atoms: _33  and  _34
REMARK   17  A    between atoms: _33  and  _36
REMARK   18  A    between atoms: _36  and  _37
REMARK   19  A    between atoms: _37  and  _38
REMARK   20  A    between atoms: _41  and  _43
REMARK   21  A    between atoms: _43  and  _44
REMARK   22  A    between atoms: _43  and  _46
REMARK   23  A    between atoms: _49  and  _51
REMARK   24  A    between atoms: _51  and  _52
REMARK   25  A    between atoms: _51  and  _54
REMARK   26  A    between atoms: _54  and  _55
REMARK   27  A    between atoms: _60  and  _62
REMARK   28  A    between atoms: _62  and  _63
REMARK   29  A    between atoms: _66  and  _68
REMARK   30  A    between atoms: _68  and  _69
REMARK   31  A    between atoms: _68  and  _71
REMARK   32  A    between atoms: _71  and  _72
REMARK   33  A    between atoms: _72  and  _73
REMARK   34  A    between atoms: _73  and  _74
REMARK   35  A    between atoms: _74  and  _75
REMARK   36  A    between atoms: _79  and  _81
REMARK   37  A    between atoms: _81  and  _82
REMARK   38  A    between atoms: _81  and  _84
REMARK   39  A    between atoms: _84  and  _85
REMARK   40  A    between atoms: _85  and  _86
REMARK   41  A    between atoms: _86  and  _87
REMARK   42  A    between atoms: _96  and  _98
REMARK   43  A    between atoms: _98  and  _99
REMARK   44  A    between atoms: _102  and  _104
REMARK   45  A    between atoms: _104  and  _105
REMARK   46  A    between atoms: _104  and  _107
REMARK   47  A    between atoms: _107  and  _108
REMARK   48  A    between atoms: _111  and  _113
REMARK   49  A    between atoms: _113  and  _114
REMARK   50  A    between atoms: _113  and  _116
REMARK   51  A    between atoms: _116  and  _117
REMARK   52  A    between atoms: _123  and  _125
REMARK   53  A    between atoms: _125  and  _126
REMARK   54  A    between atoms: _125  and  _128
REMARK   55  A    between atoms: _128  and  _129
REMARK   56  A    between atoms: _132  and  _134
REMARK   57  A    between atoms: _134  and  _135
REMARK   58  A    between atoms: _134  and  _137
REMARK   59  A    between atoms: _137  and  _138
REMARK   60  A    between atoms: _141  and  _143
REMARK   61  A    between atoms: _143  and  _144
REMARK   62  A    between atoms: _143  and  _146
REMARK   63  A    between atoms: _146  and  _147
REMARK   64  A    between atoms: _150  and  _152
REMARK   65  A    between atoms: _152  and  _153
REMARK   66  A    between atoms: _152  and  _155
REMARK   67  A    between atoms: _155  and  _156
REMARK   68  A    between atoms: _156  and  _157
REMARK   69  A    between atoms: _157  and  _158
REMARK   70  A    between atoms: _167  and  _169
REMARK   71  A    between atoms: _169  and  _170
REMARK   72  A    between atoms: _169  and  _172
REMARK   73  A    between atoms: _172  and  _173
REMARK   74  A    between atoms: _179  and  _181
REMARK   75  A    between atoms: _181  and  _182
REMARK   76  A    between atoms: _181  and  _184
REMARK   77  A    between atoms: _184  and  _185
REMARK   78  A    between atoms: _188  and  _190
REMARK   79  A    between atoms: _190  and  _191
REMARK   80  A    between atoms: _190  and  _193
REMARK   81  A    between atoms: _193  and  _194
REMARK   82  A    between atoms: _197  and  _199
REMARK   83  A    between atoms: _199  and  _200
REMARK   84  A    between atoms: _203  and  _205
REMARK   85  A    between atoms: _205  and  _206
REMARK   86  A    between atoms: _205  and  _208
REMARK   87  A    between atoms: _208  and  _209
REMARK   88  A    between atoms: _209  and  _210
REMARK   89  A    between atoms: _215  and  _217
REMARK   90  A    between atoms: _217  and  _218
REMARK   91  A    between atoms: _221  and  _223
REMARK   92  A    between atoms: _223  and  _224
REMARK   93  A    between atoms: _227  and  _229
REMARK   94  A    between atoms: _229  and  _230
REMARK   95  A    between atoms: _229  and  _232
REMARK   96  A    between atoms: _232  and  _233
REMARK   97  A    between atoms: _236  and  _238
REMARK   98  A    between atoms: _238  and  _239
REMARK   99  A    between atoms: _238  and  _241
REMARK  100  A    between atoms: _241  and  _242
REMARK  101  A    between atoms: _245  and  _247
REMARK  102  A    between atoms: _247  and  _248
REMARK  103  A    between atoms: _247  and  _250
REMARK  104  A    between atoms: _250  and  _251
REMARK  105  A    between atoms: _251  and  _252
REMARK  106  A    between atoms: _252  and  _253
REMARK  107  A    between atoms: _253  and  _254
REMARK  108  A    between atoms: _258  and  _260
REMARK  109  A    between atoms: _260  and  _261
REMARK  110  A    between atoms: _260  and  _263
REMARK  111  A    between atoms: _263  and  _264
REMARK  112  A    between atoms: _269  and  _270
REMARK  113  A    between atoms: _272  and  _274
REMARK  114  A    between atoms: _274  and  _275
REMARK  115  A    between atoms: _274  and  _277
REMARK  116  A    between atoms: _277  and  _278
REMARK  117  A    between atoms: _280  and  _282
REMARK  118  A    between atoms: _282  and  _283
REMARK  119  A    between atoms: _282  and  _285
REMARK  120  A    between atoms: _288  and  _290
REMARK  121  A    between atoms: _290  and  _291
REMARK  122  A    between atoms: _290  and  _293
REMARK  123  A    between atoms: _293  and  _294
REMARK  124  A    between atoms: _297  and  _299
REMARK  125  A    between atoms: _299  and  _300
REMARK  126  A    between atoms: _299  and  _302
REMARK  127  A    between atoms: _302  and  _303
REMARK  128  A    between atoms: _305  and  _307
REMARK  129  A    between atoms: _307  and  _308
REMARK  130  A    between atoms: _307  and  _310
REMARK  131  A    between atoms: _310  and  _311
REMARK  132  A    between atoms: _314  and  _316
REMARK  133  A    between atoms: _316  and  _317
REMARK  134  A    between atoms: _316  and  _319
REMARK  135  A    between atoms: _319  and  _320
REMARK  136  A    between atoms: _320  and  _321
REMARK  137  A    between atoms: _326  and  _328
REMARK  138  A    between atoms: _328  and  _329
REMARK  139  A    between atoms: _328  and  _331
REMARK  140  A    between atoms: _331  and  _332
REMARK  141  A    between atoms: _334  and  _336
REMARK  142  A    between atoms: _336  and  _337
REMARK  143  A    between atoms: _336  and  _339
REMARK  144  A    between atoms: _339  and  _340
REMARK  145  A    between atoms: _345  and  _346
REMARK  146  A    between atoms: _348  and  _350
REMARK  147  A    between atoms: _350  and  _351
REMARK                            x       y       z     vdW  Elec       q    Type
REMARK                         _______ _______ _______ _____ _____    ______ ____
ROOT
ATOM      1  O   HOH     1      10.324  38.563  56.004  0.00  0.00    +0.000 OA
ENDROOT
TORSDOF 0
REMARK  Name = ../refined-set-2016/2v25/2v25_pocket.pdb
REMARK  147 active torsions:
REMARK  status: ('A' for Active; 'I' for Inactive)
REMARK    1  A    between atoms: _1  and  _3
REMARK    2  A    between atoms: _3  and  _4
REMARK    3  A    between atoms: _3  and  _6
REMARK    4  A    between atoms: _6  and  _7
REMARK    5  A    between atoms: _7  and  _8
REMARK    6  A    between atoms: _8  and  _9
REMARK    7  A    between atoms: _9  and  _10
REMARK    8  A    between atoms: _14  and  _16
REMARK    9  A    between atoms: _16  and  _17
REMARK   10  A    between atoms: _16  and  _19
REMARK   11  A    between atoms: _19  and  _20
REMARK   12  A    between atoms: _23  and  _25
REMARK   13  A    between atoms: _25  and  _26
REMARK   14  A    between atoms: _25  and  _28
REMARK   15  A    between atoms: _31  and  _33
REMARK   16  A    between atoms: _33  and  _34
REMARK   17  A    between atoms: _33  and  _36
REMARK   18  A    between atoms: _36  and  _37
REMARK   19  A    between atoms: _37  and  _38
REMARK   20  A    between atoms: _41  and  _43
REMARK   21  A    between atoms: _43  and  _44
REMARK   22  A    between atoms: _43  and  _46
REMARK   23  A    between atoms: _49  and  _51
REMARK   24  A    between atoms: _51  and  _52
REMARK   25  A    between atoms: _51  and  _54
REMARK   26  A    between atoms: _54  and  _55
REMARK   27  A    between atoms: _60  and  _62
REMARK   28  A    between atoms: _62  and  _63
REMARK   29  A    between atoms: _66  and  _68
REMARK   30  A    between atoms: _68  and  _69
REMARK   31  A    between atoms: _68  and  _71
REMARK   32  A    between atoms: _71  and  _72
REMARK   33  A    between atoms: _72  and  _73
REMARK   34  A    between atoms: _73  and  _74
REMARK   35  A    between atoms: _74  and  _75
REMARK   36  A    between atoms: _79  and  _81
REMARK   37  A    between atoms: _81  and  _82
REMARK   38  A    between atoms: _81  and  _84
REMARK   39  A    between atoms: _84  and  _85
REMARK   40  A    between atoms: _85  and  _86
REMARK   41  A    between atoms: _86  and  _87
REMARK   42  A    between atoms: _96  and  _98
REMARK   43  A    between atoms: _98  and  _99
REMARK   44  A    between atoms: _102  and  _104
REMARK   45  A    between atoms: _104  and  _105
REMARK   46  A    between atoms: _104  and  _107
REMARK   47  A    between atoms: _107  and  _108
REMARK   48  A    between atoms: _111  and  _113
REMARK   49  A    between atoms: _113  and  _114
REMARK   50  A    between atoms: _113  and  _116
REMARK   51  A    between atoms: _116  and  _117
REMARK   52  A    between atoms: _123  and  _125
REMARK   53  A    between atoms: _125  and  _126
REMARK   54  A    between atoms: _125  and  _128
REMARK   55  A    between atoms: _128  and  _129
REMARK   56  A    between atoms: _132  and  _134
REMARK   57  A    between atoms: _134  and  _135
REMARK   58  A    between atoms: _134  and  _137
REMARK   59  A    between atoms: _137  and  _138
REMARK   60  A    between atoms: _141  and  _143
REMARK   61  A    between atoms: _143  and  _144
REMARK   62  A    between atoms: _143  and  _146
REMARK   63  A    between atoms: _146  and  _147
REMARK   64  A    between atoms: _150  and  _152
REMARK   65  A    between atoms: _152  and  _153
REMARK   66  A    between atoms: _152  and  _155
REMARK   67  A    between atoms: _155  and  _156
REMARK   68  A    between atoms: _156  and  _157
REMARK   69  A    between atoms: _157  and  _158
REMARK   70  A    between atoms: _167  and  _169
REMARK   71  A    between atoms: _169  and  _170
REMARK   72  A    between atoms: _169  and  _172
REMARK   73  A    between atoms: _172  and  _173
REMARK   74  A    between atoms: _179  and  _181
REMARK   75  A    between atoms: _181  and  _182
REMARK   76  A    between atoms: _181  and  _184
REMARK   77  A    between atoms: _184  and  _185
REMARK   78  A    between atoms: _188  and  _190
REMARK   79  A    between atoms: _190  and  _191
REMARK   80  A    between atoms: _190  and  _193
REMARK   81  A    between atoms: _193  and  _194
REMARK   82  A    between atoms: _197  and  _199
REMARK   83  A    between atoms: _199  and  _200
REMARK   84  A    between atoms: _203  and  _205
REMARK   85  A    between atoms: _205  and  _206
REMARK   86  A    between atoms: _205  and  _208
REMARK   87  A    between atoms: _208  and  _209
REMARK   88  A    between atoms: _209  and  _210
REMARK   89  A    between atoms: _215  and  _217
REMARK   90  A    between atoms: _217  and  _218
REMARK   91  A    between atoms: _221  and  _223
REMARK   92  A    between atoms: _223  and  _224
REMARK   93  A    between atoms: _227  and  _229
REMARK   94  A    between atoms: _229  and  _230
REMARK   95  A    between atoms: _229  and  _232
REMARK   96  A    between atoms: _232  and  _233
REMARK   97  A    between atoms: _236  and  _238
REMARK   98  A    between atoms: _238  and  _239
REMARK   99  A    between atoms: _238  and  _241
REMARK  100  A    between atoms: _241  and  _242
REMARK  101  A    between atoms: _245  and  _247
REMARK  102  A    between atoms: _247  and  _248
REMARK  103  A    between atoms: _247  and  _250
REMARK  104  A    between atoms: _250  and  _251
REMARK  105  A    between atoms: _251  and  _252
REMARK  106  A    between atoms: _252  and  _253
REMARK  107  A    between atoms: _253  and  _254
REMARK  108  A    between atoms: _258  and  _260
REMARK  109  A    between atoms: _260  and  _261
REMARK  110  A    between atoms: _260  and  _263
REMARK  111  A    between atoms: _263  and  _264
REMARK  112  A    between atoms: _269  and  _270
REMARK  113  A    between atoms: _272  and  _274
REMARK  114  A    between atoms: _274  and  _275
REMARK  115  A    between atoms: _274  and  _277
REMARK  116  A    between atoms: _277  and  _278
REMARK  117  A    between atoms: _280  and  _282
REMARK  118  A    between atoms: _282  and  _283
REMARK  119  A    between atoms: _282  and  _285
REMARK  120  A    between atoms: _288  and  _290
REMARK  121  A    between atoms: _290  and  _291
REMARK  122  A    between atoms: _290  and  _293
REMARK  123  A    between atoms: _293  and  _294
REMARK  124  A    between atoms: _297  and  _299
REMARK  125  A    between atoms: _299  and  _300
REMARK  126  A    between atoms: _299  and  _302
REMARK  127  A    between atoms: _302  and  _303
REMARK  128  A    between atoms: _305  and  _307
REMARK  129  A    between atoms: _307  and  _308
REMARK  130  A    between atoms: _307  and  _310
REMARK  131  A    between atoms: _310  and  _311
REMARK  132  A    between atoms: _314  and  _316
REMARK  133  A    between atoms: _316  and  _317
REMARK  134  A    between atoms: _316  and  _319
REMARK  135  A    between atoms: _319  and  _320
REMARK  136  A    between atoms: _320  and  _321
REMARK  137  A    between atoms: _326  and  _328
REMARK  138  A    between atoms: _328  and  _329
REMARK  139  A    between atoms: _328  and  _331
REMARK  140  A    between atoms: _331  and  _332
REMARK  141  A    between atoms: _334  and  _336
REMARK  142  A    between atoms: _336  and  _337
REMARK  143  A    between atoms: _336  and  _339
REMARK  144  A    between atoms: _339  and  _340
REMARK  145  A    between atoms: _345  and  _346
REMARK  146  A    between atoms: _348  and  _350
REMARK  147  A    between atoms: _350  and  _351
REMARK                            x       y       z     vdW  Elec       q    Type
REMARK                         _______ _______ _______ _____ _____    ______ ____
ROOT
ATOM      1  O   HOH     1       6.562  37.600  69.104  0.00  0.00    +0.000 OA
ENDROOT
TORSDOF 0
REMARK  Name = ../refined-set-2016/2v25/2v25_pocket.pdb
REMARK  147 active torsions:
REMARK  status: ('A' for Active; 'I' for Inactive)
REMARK    1  A    between atoms: _1  and  _3
REMARK    2  A    between atoms: _3  and  _4
REMARK    3  A    between atoms: _3  and  _6
REMARK    4  A    between atoms: _6  and  _7
REMARK    5  A    between atoms: _7  and  _8
REMARK    6  A    between atoms: _8  and  _9
REMARK    7  A    between atoms: _9  and  _10
REMARK    8  A    between atoms: _14  and  _16
REMARK    9  A    between atoms: _16  and  _17
REMARK   10  A    between atoms: _16  and  _19
REMARK   11  A    between atoms: _19  and  _20
REMARK   12  A    between atoms: _23  and  _25
REMARK   13  A    between atoms: _25  and  _26
REMARK   14  A    between atoms: _25  and  _28
REMARK   15  A    between atoms: _31  and  _33
REMARK   16  A    between atoms: _33  and  _34
REMARK   17  A    between atoms: _33  and  _36
REMARK   18  A    between atoms: _36  and  _37
REMARK   19  A    between atoms: _37  and  _38
REMARK   20  A    between atoms: _41  and  _43
REMARK   21  A    between atoms: _43  and  _44
REMARK   22  A    between atoms: _43  and  _46
REMARK   23  A    between atoms: _49  and  _51
REMARK   24  A    between atoms: _51  and  _52
REMARK   25  A    between atoms: _51  and  _54
REMARK   26  A    between atoms: _54  and  _55
REMARK   27  A    between atoms: _60  and  _62
REMARK   28  A    between atoms: _62  and  _63
REMARK   29  A    between atoms: _66  and  _68
REMARK   30  A    between atoms: _68  and  _69
REMARK   31  A    between atoms: _68  and  _71
REMARK   32  A    between atoms: _71  and  _72
REMARK   33  A    between atoms: _72  and  _73
REMARK   34  A    between atoms: _73  and  _74
REMARK   35  A    between atoms: _74  and  _75
REMARK   36  A    between atoms: _79  and  _81
REMARK   37  A    between atoms: _81  and  _82
REMARK   38  A    between atoms: _81  and  _84
REMARK   39  A    between atoms: _84  and  _85
REMARK   40  A    between atoms: _85  and  _86
REMARK   41  A    between atoms: _86  and  _87
REMARK   42  A    between atoms: _96  and  _98
REMARK   43  A    between atoms: _98  and  _99
REMARK   44  A    between atoms: _102  and  _104
REMARK   45  A    between atoms: _104  and  _105
REMARK   46  A    between atoms: _104  and  _107
REMARK   47  A    between atoms: _107  and  _108
REMARK   48  A    between atoms: _111  and  _113
REMARK   49  A    between atoms: _113  and  _114
REMARK   50  A    between atoms: _113  and  _116
REMARK   51  A    between atoms: _116  and  _117
REMARK   52  A    between atoms: _123  and  _125
REMARK   53  A    between atoms: _125  and  _126
REMARK   54  A    between atoms: _125  and  _128
REMARK   55  A    between atoms: _128  and  _129
REMARK   56  A    between atoms: _132  and  _134
REMARK   57  A    between atoms: _134  and  _135
REMARK   58  A    between atoms: _134  and  _137
REMARK   59  A    between atoms: _137  and  _138
REMARK   60  A    between atoms: _141  and  _143
REMARK   61  A    between atoms: _143  and  _144
REMARK   62  A    between atoms: _143  and  _146
REMARK   63  A    between atoms: _146  and  _147
REMARK   64  A    between atoms: _150  and  _152
REMARK   65  A    between atoms: _152  and  _153
REMARK   66  A    between atoms: _152  and  _155
REMARK   67  A    between atoms: _155  and  _156
REMARK   68  A    between atoms: _156  and  _157
REMARK   69  A    between atoms: _157  and  _158
REMARK   70  A    between atoms: _167  and  _169
REMARK   71  A    between atoms: _169  and  _170
REMARK   72  A    between atoms: _169  and  _172
REMARK   73  A    between atoms: _172  and  _173
REMARK   74  A    between atoms: _179  and  _181
REMARK   75  A    between atoms: _181  and  _182
REMARK   76  A    between atoms: _181  and  _184
REMARK   77  A    between atoms: _184  and  _185
REMARK   78  A    between atoms: _188  and  _190
REMARK   79  A    between atoms: _190  and  _191
REMARK   80  A    between atoms: _190  and  _193
REMARK   81  A    between atoms: _193  and  _194
REMARK   82  A    between atoms: _197  and  _199
REMARK   83  A    between atoms: _199  and  _200
REMARK   84  A    between atoms: _203  and  _205
REMARK   85  A    between atoms: _205  and  _206
REMARK   86  A    between atoms: _205  and  _208
REMARK   87  A    between atoms: _208  and  _209
REMARK   88  A    between atoms: _209  and  _210
REMARK   89  A    between atoms: _215  and  _217
REMARK   90  A    between atoms: _217  and  _218
REMARK   91  A    between atoms: _221  and  _223
REMARK   92  A    between atoms: _223  and  _224
REMARK   93  A    between atoms: _227  and  _229
REMARK   94  A    between atoms: _229  and  _230
REMARK   95  A    between atoms: _229  and  _232
REMARK   96  A    between atoms: _232  and  _233
REMARK   97  A    between atoms: _236  and  _238
REMARK   98  A    between atoms: _238  and  _239
REMARK   99  A    between atoms: _238  and  _241
REMARK  100  A    between atoms: _241  and  _242
REMARK  101  A    between atoms: _245  and  _247
REMARK  102  A    between atoms: _247  and  _248
REMARK  103  A    between atoms: _247  and  _250
REMARK  104  A    between atoms: _250  and  _251
REMARK  105  A    between atoms: _251  and  _252
REMARK  106  A    between atoms: _252  and  _253
REMARK  107  A    between atoms: _253  and  _254
REMARK  108  A    between atoms: _258  and  _260
REMARK  109  A    between atoms: _260  and  _261
REMARK  110  A    between atoms: _260  and  _263
REMARK  111  A    between atoms: _263  and  _264
REMARK  112  A    between atoms: _269  and  _270
REMARK  113  A    between atoms: _272  and  _274
REMARK  114  A    between atoms: _274  and  _275
REMARK  115  A    between atoms: _274  and  _277
REMARK  116  A    between atoms: _277  and  _278
REMARK  117  A    between atoms: _280  and  _282
REMARK  118  A    between atoms: _282  and  _283
REMARK  119  A    between atoms: _282  and  _285
REMARK  120  A    between atoms: _288  and  _290
REMARK  121  A    between atoms: _290  and  _291
REMARK  122  A    between atoms: _290  and  _293
REMARK  123  A    between atoms: _293  and  _294
REMARK  124  A    between atoms: _297  and  _299
REMARK  125  A    between atoms: _299  and  _300
REMARK  126  A    between atoms: _299  and  _302
REMARK  127  A    between atoms: _302  and  _303
REMARK  128  A    between atoms: _305  and  _307
REMARK  129  A    between atoms: _307  and  _308
REMARK  130  A    between atoms: _307  and  _310
REMARK  131  A    between atoms: _310  and  _311
REMARK  132  A    between atoms: _314  and  _316
REMARK  133  A    between atoms: _316  and  _317
REMARK  134  A    between atoms: _316  and  _319
REMARK  135  A    between atoms: _319  and  _320
REMARK  136  A    between atoms: _320  and  _321
REMARK  137  A    between atoms: _326  and  _328
REMARK  138  A    between atoms: _328  and  _329
REMARK  139  A    between atoms: _328  and  _331
REMARK  140  A    between atoms: _331  and  _332
REMARK  141  A    between atoms: _334  and  _336
REMARK  142  A    between atoms: _336  and  _337
REMARK  143  A    between atoms: _336  and  _339
REMARK  144  A    between atoms: _339  and  _340
REMARK  145  A    between atoms: _345  and  _346
REMARK  146  A    between atoms: _348  and  _350
REMARK  147  A    between atoms: _350  and  _351
REMARK                            x       y       z     vdW  Elec       q    Type
REMARK                         _______ _______ _______ _____ _____    ______ ____
ROOT
ATOM      1  O   HOH     1       1.026  34.330  57.277  0.00  0.00    +0.000 OA
ENDROOT
TORSDOF 0
REMARK  Name = ../refined-set-2016/2v25/2v25_pocket.pdb
REMARK  147 active torsions:
REMARK  status: ('A' for Active; 'I' for Inactive)
REMARK    1  A    between atoms: _1  and  _3
REMARK    2  A    between atoms: _3  and  _4
REMARK    3  A    between atoms: _3  and  _6
REMARK    4  A    between atoms: _6  and  _7
REMARK    5  A    between atoms: _7  and  _8
REMARK    6  A    between atoms: _8  and  _9
REMARK    7  A    between atoms: _9  and  _10
REMARK    8  A    between atoms: _14  and  _16
REMARK    9  A    between atoms: _16  and  _17
REMARK   10  A    between atoms: _16  and  _19
REMARK   11  A    between atoms: _19  and  _20
REMARK   12  A    between atoms: _23  and  _25
REMARK   13  A    between atoms: _25  and  _26
REMARK   14  A    between atoms: _25  and  _28
REMARK   15  A    between atoms: _31  and  _33
REMARK   16  A    between atoms: _33  and  _34
REMARK   17  A    between atoms: _33  and  _36
REMARK   18  A    between atoms: _36  and  _37
REMARK   19  A    between atoms: _37  and  _38
REMARK   20  A    between atoms: _41  and  _43
REMARK   21  A    between atoms: _43  and  _44
REMARK   22  A    between atoms: _43  and  _46
REMARK   23  A    between atoms: _49  and  _51
REMARK   24  A    between atoms: _51  and  _52
REMARK   25  A    between atoms: _51  and  _54
REMARK   26  A    between atoms: _54  and  _55
REMARK   27  A    between atoms: _60  and  _62
REMARK   28  A    between atoms: _62  and  _63
REMARK   29  A    between atoms: _66  and  _68
REMARK   30  A    between atoms: _68  and  _69
REMARK   31  A    between atoms: _68  and  _71
REMARK   32  A    between atoms: _71  and  _72
REMARK   33  A    between atoms: _72  and  _73
REMARK   34  A    between atoms: _73  and  _74
REMARK   35  A    between atoms: _74  and  _75
REMARK   36  A    between atoms: _79  and  _81
REMARK   37  A    between atoms: _81  and  _82
REMARK   38  A    between atoms: _81  and  _84
REMARK   39  A    between atoms: _84  and  _85
REMARK   40  A    between atoms: _85  and  _86
REMARK   41  A    between atoms: _86  and  _87
REMARK   42  A    between atoms: _96  and  _98
REMARK   43  A    between atoms: _98  and  _99
REMARK   44  A    between atoms: _102  and  _104
REMARK   45  A    between atoms: _104  and  _105
REMARK   46  A    between atoms: _104  and  _107
REMARK   47  A    between atoms: _107  and  _108
REMARK   48  A    between atoms: _111  and  _113
REMARK   49  A    between atoms: _113  and  _114
REMARK   50  A    between atoms: _113  and  _116
REMARK   51  A    between atoms: _116  and  _117
REMARK   52  A    between atoms: _123  and  _125
REMARK   53  A    between atoms: _125  and  _126
REMARK   54  A    between atoms: _125  and  _128
REMARK   55  A    between atoms: _128  and  _129
REMARK   56  A    between atoms: _132  and  _134
REMARK   57  A    between atoms: _134  and  _135
REMARK   58  A    between atoms: _134  and  _137
REMARK   59  A    between atoms: _137  and  _138
REMARK   60  A    between atoms: _141  and  _143
REMARK   61  A    between atoms: _143  and  _144
REMARK   62  A    between atoms: _143  and  _146
REMARK   63  A    between atoms: _146  and  _147
REMARK   64  A    between atoms: _150  and  _152
REMARK   65  A    between atoms: _152  and  _153
REMARK   66  A    between atoms: _152  and  _155
REMARK   67  A    between atoms: _155  and  _156
REMARK   68  A    between atoms: _156  and  _157
REMARK   69  A    between atoms: _157  and  _158
REMARK   70  A    between atoms: _167  and  _169
REMARK   71  A    between atoms: _169  and  _170
REMARK   72  A    between atoms: _169  and  _172
REMARK   73  A    between atoms: _172  and  _173
REMARK   74  A    between atoms: _179  and  _181
REMARK   75  A    between atoms: _181  and  _182
REMARK   76  A    between atoms: _181  and  _184
REMARK   77  A    between atoms: _184  and  _185
REMARK   78  A    between atoms: _188  and  _190
REMARK   79  A    between atoms: _190  and  _191
REMARK   80  A    between atoms: _190  and  _193
REMARK   81  A    between atoms: _193  and  _194
REMARK   82  A    between atoms: _197  and  _199
REMARK   83  A    between atoms: _199  and  _200
REMARK   84  A    between atoms: _203  and  _205
REMARK   85  A    between atoms: _205  and  _206
REMARK   86  A    between atoms: _205  and  _208
REMARK   87  A    between atoms: _208  and  _209
REMARK   88  A    between atoms: _209  and  _210
REMARK   89  A    between atoms: _215  and  _217
REMARK   90  A    between atoms: _217  and  _218
REMARK   91  A    between atoms: _221  and  _223
REMARK   92  A    between atoms: _223  and  _224
REMARK   93  A    between atoms: _227  and  _229
REMARK   94  A    between atoms: _229  and  _230
REMARK   95  A    between atoms: _229  and  _232
REMARK   96  A    between atoms: _232  and  _233
REMARK   97  A    between atoms: _236  and  _238
REMARK   98  A    between atoms: _238  and  _239
REMARK   99  A    between atoms: _238  and  _241
REMARK  100  A    between atoms: _241  and  _242
REMARK  101  A    between atoms: _245  and  _247
REMARK  102  A    between atoms: _247  and  _248
REMARK  103  A    between atoms: _247  and  _250
REMARK  104  A    between atoms: _250  and  _251
REMARK  105  A    between atoms: _251  and  _252
REMARK  106  A    between atoms: _252  and  _253
REMARK  107  A    between atoms: _253  and  _254
REMARK  108  A    between atoms: _258  and  _260
REMARK  109  A    between atoms: _260  and  _261
REMARK  110  A    between atoms: _260  and  _263
REMARK  111  A    between atoms: _263  and  _264
REMARK  112  A    between atoms: _269  and  _270
REMARK  113  A    between atoms: _272  and  _274
REMARK  114  A    between atoms: _274  and  _275
REMARK  115  A    between atoms: _274  and  _277
REMARK  116  A    between atoms: _277  and  _278
REMARK  117  A    between atoms: _280  and  _282
REMARK  118  A    between atoms: _282  and  _283
REMARK  119  A    between atoms: _282  and  _285
REMARK  120  A    between atoms: _288  and  _290
REMARK  121  A    between atoms: _290  and  _291
REMARK  122  A    between atoms: _290  and  _293
REMARK  123  A    between atoms: _293  and  _294
REMARK  124  A    between atoms: _297  and  _299
REMARK  125  A    between atoms: _299  and  _300
REMARK  126  A    between atoms: _299  and  _302
REMARK  127  A    between atoms: _302  and  _303
REMARK  128  A    between atoms: _305  and  _307
REMARK  129  A    between atoms: _307  and  _308
REMARK  130  A    between atoms: _307  and  _310
REMARK  131  A    between atoms: _310  and  _311
REMARK  132  A    between atoms: _314  and  _316
REMARK  133  A    between atoms: _316  and  _317
REMARK  134  A    between atoms: _316  and  _319
REMARK  135  A    between atoms: _319  and  _320
REMARK  136  A    between atoms: _320  and  _321
REMARK  137  A    between atoms: _326  and  _328
REMARK  138  A    between atoms: _328  and  _329
REMARK  139  A    between atoms: _328  and  _331
REMARK  140  A    between atoms: _331  and  _332
REMARK  141  A    between atoms: _334  and  _336
REMARK  142  A    between atoms: _336  and  _337
REMARK  143  A    between atoms: _336  and  _339
REMARK  144  A    between atoms: _339  and  _340
REMARK  145  A    between atoms: _345  and  _346
REMARK  146  A    between atoms: _348  and  _350
REMARK  147  A    between atoms: _350  and  _351
REMARK                            x       y       z     vdW  Elec       q    Type
REMARK                         _______ _______ _______ _____ _____    ______ ____
ROOT
ATOM      1  O   HOH     1      14.880  37.716  64.989  0.00  0.00    +0.000 OA
ENDROOT
TORSDOF 0
REMARK  Name = ../refined-set-2016/2v25/2v25_pocket.pdb
REMARK  147 active torsions:
REMARK  status: ('A' for Active; 'I' for Inactive)
REMARK    1  A    between atoms: _1  and  _3
REMARK    2  A    between atoms: _3  and  _4
REMARK    3  A    between atoms: _3  and  _6
REMARK    4  A    between atoms: _6  and  _7
REMARK    5  A    between atoms: _7  and  _8
REMARK    6  A    between atoms: _8  and  _9
REMARK    7  A    between atoms: _9  and  _10
REMARK    8  A    between atoms: _14  and  _16
REMARK    9  A    between atoms: _16  and  _17
REMARK   10  A    between atoms: _16  and  _19
REMARK   11  A    between atoms: _19  and  _20
REMARK   12  A    between atoms: _23  and  _25
REMARK   13  A    between atoms: _25  and  _26
REMARK   14  A    between atoms: _25  and  _28
REMARK   15  A    between atoms: _31  and  _33
REMARK   16  A    between atoms: _33  and  _34
REMARK   17  A    between atoms: _33  and  _36
REMARK   18  A    between atoms: _36  and  _37
REMARK   19  A    between atoms: _37  and  _38
REMARK   20  A    between atoms: _41  and  _43
REMARK   21  A    between atoms: _43  and  _44
REMARK   22  A    between atoms: _43  and  _46
REMARK   23  A    between atoms: _49  and  _51
REMARK   24  A    between atoms: _51  and  _52
REMARK   25  A    between atoms: _51  and  _54
REMARK   26  A    between atoms: _54  and  _55
REMARK   27  A    between atoms: _60  and  _62
REMARK   28  A    between atoms: _62  and  _63
REMARK   29  A    between atoms: _66  and  _68
REMARK   30  A    between atoms: _68  and  _69
REMARK   31  A    between atoms: _68  and  _71
REMARK   32  A    between atoms: _71  and  _72
REMARK   33  A    between atoms: _72  and  _73
REMARK   34  A    between atoms: _73  and  _74
REMARK   35  A    between atoms: _74  and  _75
REMARK   36  A    between atoms: _79  and  _81
REMARK   37  A    between atoms: _81  and  _82
REMARK   38  A    between atoms: _81  and  _84
REMARK   39  A    between atoms: _84  and  _85
REMARK   40  A    between atoms: _85  and  _86
REMARK   41  A    between atoms: _86  and  _87
REMARK   42  A    between atoms: _96  and  _98
REMARK   43  A    between atoms: _98  and  _99
REMARK   44  A    between atoms: _102  and  _104
REMARK   45  A    between atoms: _104  and  _105
REMARK   46  A    between atoms: _104  and  _107
REMARK   47  A    between atoms: _107  and  _108
REMARK   48  A    between atoms: _111  and  _113
REMARK   49  A    between atoms: _113  and  _114
REMARK   50  A    between atoms: _113  and  _116
REMARK   51  A    between atoms: _116  and  _117
REMARK   52  A    between atoms: _123  and  _125
REMARK   53  A    between atoms: _125  and  _126
REMARK   54  A    between atoms: _125  and  _128
REMARK   55  A    between atoms: _128  and  _129
REMARK   56  A    between atoms: _132  and  _134
REMARK   57  A    between atoms: _134  and  _135
REMARK   58  A    between atoms: _134  and  _137
REMARK   59  A    between atoms: _137  and  _138
REMARK   60  A    between atoms: _141  and  _143
REMARK   61  A    between atoms: _143  and  _144
REMARK   62  A    between atoms: _143  and  _146
REMARK   63  A    between atoms: _146  and  _147
REMARK   64  A    between atoms: _150  and  _152
REMARK   65  A    between atoms: _152  and  _153
REMARK   66  A    between atoms: _152  and  _155
REMARK   67  A    between atoms: _155  and  _156
REMARK   68  A    between atoms: _156  and  _157
REMARK   69  A    between atoms: _157  and  _158
REMARK   70  A    between atoms: _167  and  _169
REMARK   71  A    between atoms: _169  and  _170
REMARK   72  A    between atoms: _169  and  _172
REMARK   73  A    between atoms: _172  and  _173
REMARK   74  A    between atoms: _179  and  _181
REMARK   75  A    between atoms: _181  and  _182
REMARK   76  A    between atoms: _181  and  _184
REMARK   77  A    between atoms: _184  and  _185
REMARK   78  A    between atoms: _188  and  _190
REMARK   79  A    between atoms: _190  and  _191
REMARK   80  A    between atoms: _190  and  _193
REMARK   81  A    between atoms: _193  and  _194
REMARK   82  A    between atoms: _197  and  _199
REMARK   83  A    between atoms: _199  and  _200
REMARK   84  A    between atoms: _203  and  _205
REMARK   85  A    between atoms: _205  and  _206
REMARK   86  A    between atoms: _205  and  _208
REMARK   87  A    between atoms: _208  and  _209
REMARK   88  A    between atoms: _209  and  _210
REMARK   89  A    between atoms: _215  and  _217
REMARK   90  A    between atoms: _217  and  _218
REMARK   91  A    between atoms: _221  and  _223
REMARK   92  A    between atoms: _223  and  _224
REMARK   93  A    between atoms: _227  and  _229
REMARK   94  A    between atoms: _229  and  _230
REMARK   95  A    between atoms: _229  and  _232
REMARK   96  A    between atoms: _232  and  _233
REMARK   97  A    between atoms: _236  and  _238
REMARK   98  A    between atoms: _238  and  _239
REMARK   99  A    between atoms: _238  and  _241
REMARK  100  A    between atoms: _241  and  _242
REMARK  101  A    between atoms: _245  and  _247
REMARK  102  A    between atoms: _247  and  _248
REMARK  103  A    between atoms: _247  and  _250
REMARK  104  A    between atoms: _250  and  _251
REMARK  105  A    between atoms: _251  and  _252
REMARK  106  A    between atoms: _252  and  _253
REMARK  107  A    between atoms: _253  and  _254
REMARK  108  A    between atoms: _258  and  _260
REMARK  109  A    between atoms: _260  and  _261
REMARK  110  A    between atoms: _260  and  _263
REMARK  111  A    between atoms: _263  and  _264
REMARK  112  A    between atoms: _269  and  _270
REMARK  113  A    between atoms: _272  and  _274
REMARK  114  A    between atoms: _274  and  _275
REMARK  115  A    between atoms: _274  and  _277
REMARK  116  A    between atoms: _277  and  _278
REMARK  117  A    between atoms: _280  and  _282
REMARK  118  A    between atoms: _282  and  _283
REMARK  119  A    between atoms: _282  and  _285
REMARK  120  A    between atoms: _288  and  _290
REMARK  121  A    between atoms: _290  and  _291
REMARK  122  A    between atoms: _290  and  _293
REMARK  123  A    between atoms: _293  and  _294
REMARK  124  A    between atoms: _297  and  _299
REMARK  125  A    between atoms: _299  and  _300
REMARK  126  A    between atoms: _299  and  _302
REMARK  127  A    between atoms: _302  and  _303
REMARK  128  A    between atoms: _305  and  _307
REMARK  129  A    between atoms: _307  and  _308
REMARK  130  A    between atoms: _307  and  _310
REMARK  131  A    between atoms: _310  and  _311
REMARK  132  A    between atoms: _314  and  _316
REMARK  133  A    between atoms: _316  and  _317
REMARK  134  A    between atoms: _316  and  _319
REMARK  135  A    between atoms: _319  and  _320
REMARK  136  A    between atoms: _320  and  _321
REMARK  137  A    between atoms: _326  and  _328
REMARK  138  A    between atoms: _328  and  _329
REMARK  139  A    between atoms: _328  and  _331
REMARK  140  A    between atoms: _331  and  _332
REMARK  141  A    between atoms: _334  and  _336
REMARK  142  A    between atoms: _336  and  _337
REMARK  143  A    between atoms: _336  and  _339
REMARK  144  A    between atoms: _339  and  _340
REMARK  145  A    between atoms: _345  and  _346
REMARK  146  A    between atoms: _348  and  _350
REMARK  147  A    between atoms: _350  and  _351
REMARK                            x       y       z     vdW  Elec       q    Type
REMARK                         _______ _______ _______ _____ _____    ______ ____
ROOT
ATOM      1  O   HOH     1      10.349  33.222  68.974  0.00  0.00    +0.000 OA
ENDROOT
TORSDOF 0
REMARK  Name = ../refined-set-2016/2v25/2v25_pocket.pdb
REMARK  147 active torsions:
REMARK  status: ('A' for Active; 'I' for Inactive)
REMARK    1  A    between atoms: _1  and  _3
REMARK    2  A    between atoms: _3  and  _4
REMARK    3  A    between atoms: _3  and  _6
REMARK    4  A    between atoms: _6  and  _7
REMARK    5  A    between atoms: _7  and  _8
REMARK    6  A    between atoms: _8  and  _9
REMARK    7  A    between atoms: _9  and  _10
REMARK    8  A    between atoms: _14  and  _16
REMARK    9  A    between atoms: _16  and  _17
REMARK   10  A    between atoms: _16  and  _19
REMARK   11  A    between atoms: _19  and  _20
REMARK   12  A    between atoms: _23  and  _25
REMARK   13  A    between atoms: _25  and  _26
REMARK   14  A    between atoms: _25  and  _28
REMARK   15  A    between atoms: _31  and  _33
REMARK   16  A    between atoms: _33  and  _34
REMARK   17  A    between atoms: _33  and  _36
REMARK   18  A    between atoms: _36  and  _37
REMARK   19  A    between atoms: _37  and  _38
REMARK   20  A    between atoms: _41  and  _43
REMARK   21  A    between atoms: _43  and  _44
REMARK   22  A    between atoms: _43  and  _46
REMARK   23  A    between atoms: _49  and  _51
REMARK   24  A    between atoms: _51  and  _52
REMARK   25  A    between atoms: _51  and  _54
REMARK   26  A    between atoms: _54  and  _55
REMARK   27  A    between atoms: _60  and  _62
REMARK   28  A    between atoms: _62  and  _63
REMARK   29  A    between atoms: _66  and  _68
REMARK   30  A    between atoms: _68  and  _69
REMARK   31  A    between atoms: _68  and  _71
REMARK   32  A    between atoms: _71  and  _72
REMARK   33  A    between atoms: _72  and  _73
REMARK   34  A    between atoms: _73  and  _74
REMARK   35  A    between atoms: _74  and  _75
REMARK   36  A    between atoms: _79  and  _81
REMARK   37  A    between atoms: _81  and  _82
REMARK   38  A    between atoms: _81  and  _84
REMARK   39  A    between atoms: _84  and  _85
REMARK   40  A    between atoms: _85  and  _86
REMARK   41  A    between atoms: _86  and  _87
REMARK   42  A    between atoms: _96  and  _98
REMARK   43  A    between atoms: _98  and  _99
REMARK   44  A    between atoms: _102  and  _104
REMARK   45  A    between atoms: _104  and  _105
REMARK   46  A    between atoms: _104  and  _107
REMARK   47  A    between atoms: _107  and  _108
REMARK   48  A    between atoms: _111  and  _113
REMARK   49  A    between atoms: _113  and  _114
REMARK   50  A    between atoms: _113  and  _116
REMARK   51  A    between atoms: _116  and  _117
REMARK   52  A    between atoms: _123  and  _125
REMARK   53  A    between atoms: _125  and  _126
REMARK   54  A    between atoms: _125  and  _128
REMARK   55  A    between atoms: _128  and  _129
REMARK   56  A    between atoms: _132  and  _134
REMARK   57  A    between atoms: _134  and  _135
REMARK   58  A    between atoms: _134  and  _137
REMARK   59  A    between atoms: _137  and  _138
REMARK   60  A    between atoms: _141  and  _143
REMARK   61  A    between atoms: _143  and  _144
REMARK   62  A    between atoms: _143  and  _146
REMARK   63  A    between atoms: _146  and  _147
REMARK   64  A    between atoms: _150  and  _152
REMARK   65  A    between atoms: _152  and  _153
REMARK   66  A    between atoms: _152  and  _155
REMARK   67  A    between atoms: _155  and  _156
REMARK   68  A    between atoms: _156  and  _157
REMARK   69  A    between atoms: _157  and  _158
REMARK   70  A    between atoms: _167  and  _169
REMARK   71  A    between atoms: _169  and  _170
REMARK   72  A    between atoms: _169  and  _172
REMARK   73  A    between atoms: _172  and  _173
REMARK   74  A    between atoms: _179  and  _181
REMARK   75  A    between atoms: _181  and  _182
REMARK   76  A    between atoms: _181  and  _184
REMARK   77  A    between atoms: _184  and  _185
REMARK   78  A    between atoms: _188  and  _190
REMARK   79  A    between atoms: _190  and  _191
REMARK   80  A    between atoms: _190  and  _193
REMARK   81  A    between atoms: _193  and  _194
REMARK   82  A    between atoms: _197  and  _199
REMARK   83  A    between atoms: _199  and  _200
REMARK   84  A    between atoms: _203  and  _205
REMARK   85  A    between atoms: _205  and  _206
REMARK   86  A    between atoms: _205  and  _208
REMARK   87  A    between atoms: _208  and  _209
REMARK   88  A    between atoms: _209  and  _210
REMARK   89  A    between atoms: _215  and  _217
REMARK   90  A    between atoms: _217  and  _218
REMARK   91  A    between atoms: _221  and  _223
REMARK   92  A    between atoms: _223  and  _224
REMARK   93  A    between atoms: _227  and  _229
REMARK   94  A    between atoms: _229  and  _230
REMARK   95  A    between atoms: _229  and  _232
REMARK   96  A    between atoms: _232  and  _233
REMARK   97  A    between atoms: _236  and  _238
REMARK   98  A    between atoms: _238  and  _239
REMARK   99  A    between atoms: _238  and  _241
REMARK  100  A    between atoms: _241  and  _242
REMARK  101  A    between atoms: _245  and  _247
REMARK  102  A    between atoms: _247  and  _248
REMARK  103  A    between atoms: _247  and  _250
REMARK  104  A    between atoms: _250  and  _251
REMARK  105  A    between atoms: _251  and  _252
REMARK  106  A    between atoms: _252  and  _253
REMARK  107  A    between atoms: _253  and  _254
REMARK  108  A    between atoms: _258  and  _260
REMARK  109  A    between atoms: _260  and  _261
REMARK  110  A    between atoms: _260  and  _263
REMARK  111  A    between atoms: _263  and  _264
REMARK  112  A    between atoms: _269  and  _270
REMARK  113  A    between atoms: _272  and  _274
REMARK  114  A    between atoms: _274  and  _275
REMARK  115  A    between atoms: _274  and  _277
REMARK  116  A    between atoms: _277  and  _278
REMARK  117  A    between atoms: _280  and  _282
REMARK  118  A    between atoms: _282  and  _283
REMARK  119  A    between atoms: _282  and  _285
REMARK  120  A    between atoms: _288  and  _290
REMARK  121  A    between atoms: _290  and  _291
REMARK  122  A    between atoms: _290  and  _293
REMARK  123  A    between atoms: _293  and  _294
REMARK  124  A    between atoms: _297  and  _299
REMARK  125  A    between atoms: _299  and  _300
REMARK  126  A    between atoms: _299  and  _302
REMARK  127  A    between atoms: _302  and  _303
REMARK  128  A    between atoms: _305  and  _307
REMARK  129  A    between atoms: _307  and  _308
REMARK  130  A    between atoms: _307  and  _310
REMARK  131  A    between atoms: _310  and  _311
REMARK  132  A    between atoms: _314  and  _316
REMARK  133  A    between atoms: _316  and  _317
REMARK  134  A    between atoms: _316  and  _319
REMARK  135  A    between atoms: _319  and  _320
REMARK  136  A    between atoms: _320  and  _321
REMARK  137  A    between atoms: _326  and  _328
REMARK  138  A    between atoms: _328  and  _329
REMARK  139  A    between atoms: _328  and  _331
REMARK  140  A    between atoms: _331  and  _332
REMARK  141  A    between atoms: _334  and  _336
REMARK  142  A    between atoms: _336  and  _337
REMARK  143  A    between atoms: _336  and  _339
REMARK  144  A    between atoms: _339  and  _340
REMARK  145  A    between atoms: _345  and  _346
REMARK  146  A    between atoms: _348  and  _350
REMARK  147  A    between atoms: _350  and  _351
REMARK                            x       y       z     vdW  Elec       q    Type
REMARK                         _______ _______ _______ _____ _____    ______ ____
ROOT
ATOM      1  O   HOH     1      15.624  35.583  60.924  0.00  0.00    +0.000 OA
ENDROOT
TORSDOF 0
REMARK  Name = ../refined-set-2016/2v25/2v25_pocket.pdb
REMARK  147 active torsions:
REMARK  status: ('A' for Active; 'I' for Inactive)
REMARK    1  A    between atoms: _1  and  _3
REMARK    2  A    between atoms: _3  and  _4
REMARK    3  A    between atoms: _3  and  _6
REMARK    4  A    between atoms: _6  and  _7
REMARK    5  A    between atoms: _7  and  _8
REMARK    6  A    between atoms: _8  and  _9
REMARK    7  A    between atoms: _9  and  _10
REMARK    8  A    between atoms: _14  and  _16
REMARK    9  A    between atoms: _16  and  _17
REMARK   10  A    between atoms: _16  and  _19
REMARK   11  A    between atoms: _19  and  _20
REMARK   12  A    between atoms: _23  and  _25
REMARK   13  A    between atoms: _25  and  _26
REMARK   14  A    between atoms: _25  and  _28
REMARK   15  A    between atoms: _31  and  _33
REMARK   16  A    between atoms: _33  and  _34
REMARK   17  A    between atoms: _33  and  _36
REMARK   18  A    between atoms: _36  and  _37
REMARK   19  A    between atoms: _37  and  _38
REMARK   20  A    between atoms: _41  and  _43
REMARK   21  A    between atoms: _43  and  _44
REMARK   22  A    between atoms: _43  and  _46
REMARK   23  A    between atoms: _49  and  _51
REMARK   24  A    between atoms: _51  and  _52
REMARK   25  A    between atoms: _51  and  _54
REMARK   26  A    between atoms: _54  and  _55
REMARK   27  A    between atoms: _60  and  _62
REMARK   28  A    between atoms: _62  and  _63
REMARK   29  A    between atoms: _66  and  _68
REMARK   30  A    between atoms: _68  and  _69
REMARK   31  A    between atoms: _68  and  _71
REMARK   32  A    between atoms: _71  and  _72
REMARK   33  A    between atoms: _72  and  _73
REMARK   34  A    between atoms: _73  and  _74
REMARK   35  A    between atoms: _74  and  _75
REMARK   36  A    between atoms: _79  and  _81
REMARK   37  A    between atoms: _81  and  _82
REMARK   38  A    between atoms: _81  and  _84
REMARK   39  A    between atoms: _84  and  _85
REMARK   40  A    between atoms: _85  and  _86
REMARK   41  A    between atoms: _86  and  _87
REMARK   42  A    between atoms: _96  and  _98
REMARK   43  A    between atoms: _98  and  _99
REMARK   44  A    between atoms: _102  and  _104
REMARK   45  A    between atoms: _104  and  _105
REMARK   46  A    between atoms: _104  and  _107
REMARK   47  A    between atoms: _107  and  _108
REMARK   48  A    between atoms: _111  and  _113
REMARK   49  A    between atoms: _113  and  _114
REMARK   50  A    between atoms: _113  and  _116
REMARK   51  A    between atoms: _116  and  _117
REMARK   52  A    between atoms: _123  and  _125
REMARK   53  A    between atoms: _125  and  _126
REMARK   54  A    between atoms: _125  and  _128
REMARK   55  A    between atoms: _128  and  _129
REMARK   56  A    between atoms: _132  and  _134
REMARK   57  A    between atoms: _134  and  _135
REMARK   58  A    between atoms: _134  and  _137
REMARK   59  A    between atoms: _137  and  _138
REMARK   60  A    between atoms: _141  and  _143
REMARK   61  A    between atoms: _143  and  _144
REMARK   62  A    between atoms: _143  and  _146
REMARK   63  A    between atoms: _146  and  _147
REMARK   64  A    between atoms: _150  and  _152
REMARK   65  A    between atoms: _152  and  _153
REMARK   66  A    between atoms: _152  and  _155
REMARK   67  A    between atoms: _155  and  _156
REMARK   68  A    between atoms: _156  and  _157
REMARK   69  A    between atoms: _157  and  _158
REMARK   70  A    between atoms: _167  and  _169
REMARK   71  A    between atoms: _169  and  _170
REMARK   72  A    between atoms: _169  and  _172
REMARK   73  A    between atoms: _172  and  _173
REMARK   74  A    between atoms: _179  and  _181
REMARK   75  A    between atoms: _181  and  _182
REMARK   76  A    between atoms: _181  and  _184
REMARK   77  A    between atoms: _184  and  _185
REMARK   78  A    between atoms: _188  and  _190
REMARK   79  A    between atoms: _190  and  _191
REMARK   80  A    between atoms: _190  and  _193
REMARK   81  A    between atoms: _193  and  _194
REMARK   82  A    between atoms: _197  and  _199
REMARK   83  A    between atoms: _199  and  _200
REMARK   84  A    between atoms: _203  and  _205
REMARK   85  A    between atoms: _205  and  _206
REMARK   86  A    between atoms: _205  and  _208
REMARK   87  A    between atoms: _208  and  _209
REMARK   88  A    between atoms: _209  and  _210
REMARK   89  A    between atoms: _215  and  _217
REMARK   90  A    between atoms: _217  and  _218
REMARK   91  A    between atoms: _221  and  _223
REMARK   92  A    between atoms: _223  and  _224
REMARK   93  A    between atoms: _227  and  _229
REMARK   94  A    between atoms: _229  and  _230
REMARK   95  A    between atoms: _229  and  _232
REMARK   96  A    between atoms: _232  and  _233
REMARK   97  A    between atoms: _236  and  _238
REMARK   98  A    between atoms: _238  and  _239
REMARK   99  A    between atoms: _238  and  _241
REMARK  100  A    between atoms: _241  and  _242
REMARK  101  A    between atoms: _245  and  _247
REMARK  102  A    between atoms: _247  and  _248
REMARK  103  A    between atoms: _247  and  _250
REMARK  104  A    between atoms: _250  and  _251
REMARK  105  A    between atoms: _251  and  _252
REMARK  106  A    between atoms: _252  and  _253
REMARK  107  A    between atoms: _253  and  _254
REMARK  108  A    between atoms: _258  and  _260
REMARK  109  A    between atoms: _260  and  _261
REMARK  110  A    between atoms: _260  and  _263
REMARK  111  A    between atoms: _263  and  _264
REMARK  112  A    between atoms: _269  and  _270
REMARK  113  A    between atoms: _272  and  _274
REMARK  114  A    between atoms: _274  and  _275
REMARK  115  A    between atoms: _274  and  _277
REMARK  116  A    between atoms: _277  and  _278
REMARK  117  A    between atoms: _280  and  _282
REMARK  118  A    between atoms: _282  and  _283
REMARK  119  A    between atoms: _282  and  _285
REMARK  120  A    between atoms: _288  and  _290
REMARK  121  A    between atoms: _290  and  _291
REMARK  122  A    between atoms: _290  and  _293
REMARK  123  A    between atoms: _293  and  _294
REMARK  124  A    between atoms: _297  and  _299
REMARK  125  A    between atoms: _299  and  _300
REMARK  126  A    between atoms: _299  and  _302
REMARK  127  A    between atoms: _302  and  _303
REMARK  128  A    between atoms: _305  and  _307
REMARK  129  A    between atoms: _307  and  _308
REMARK  130  A    between atoms: _307  and  _310
REMARK  131  A    between atoms: _310  and  _311
REMARK  132  A    between atoms: _314  and  _316
REMARK  133  A    between atoms: _316  and  _317
REMARK  134  A    between atoms: _316  and  _319
REMARK  135  A    between atoms: _319  and  _320
REMARK  136  A    between atoms: _320  and  _321
REMARK  137  A    between atoms: _326  and  _328
REMARK  138  A    between atoms: _328  and  _329
REMARK  139  A    between atoms: _328  and  _331
REMARK  140  A    between atoms: _331  and  _332
REMARK  141  A    between atoms: _334  and  _336
REMARK  142  A    between atoms: _336  and  _337
REMARK  143  A    between atoms: _336  and  _339
REMARK  144  A    between atoms: _339  and  _340
REMARK  145  A    between atoms: _345  and  _346
REMARK  146  A    between atoms: _348  and  _350
REMARK  147  A    between atoms: _350  and  _351
REMARK                            x       y       z     vdW  Elec       q    Type
REMARK                         _______ _______ _______ _____ _____    ______ ____
ROOT
ATOM      1  O   HOH     1      11.867  32.636  62.669  0.00  0.00    +0.000 OA
ENDROOT
TORSDOF 0
REMARK  Name = ../refined-set-2016/2v25/2v25_pocket.pdb
REMARK  147 active torsions:
REMARK  status: ('A' for Active; 'I' for Inactive)
REMARK    1  A    between atoms: _1  and  _3
REMARK    2  A    between atoms: _3  and  _4
REMARK    3  A    between atoms: _3  and  _6
REMARK    4  A    between atoms: _6  and  _7
REMARK    5  A    between atoms: _7  and  _8
REMARK    6  A    between atoms: _8  and  _9
REMARK    7  A    between atoms: _9  and  _10
REMARK    8  A    between atoms: _14  and  _16
REMARK    9  A    between atoms: _16  and  _17
REMARK   10  A    between atoms: _16  and  _19
REMARK   11  A    between atoms: _19  and  _20
REMARK   12  A    between atoms: _23  and  _25
REMARK   13  A    between atoms: _25  and  _26
REMARK   14  A    between atoms: _25  and  _28
REMARK   15  A    between atoms: _31  and  _33
REMARK   16  A    between atoms: _33  and  _34
REMARK   17  A    between atoms: _33  and  _36
REMARK   18  A    between atoms: _36  and  _37
REMARK   19  A    between atoms: _37  and  _38
REMARK   20  A    between atoms: _41  and  _43
REMARK   21  A    between atoms: _43  and  _44
REMARK   22  A    between atoms: _43  and  _46
REMARK   23  A    between atoms: _49  and  _51
REMARK   24  A    between atoms: _51  and  _52
REMARK   25  A    between atoms: _51  and  _54
REMARK   26  A    between atoms: _54  and  _55
REMARK   27  A    between atoms: _60  and  _62
REMARK   28  A    between atoms: _62  and  _63
REMARK   29  A    between atoms: _66  and  _68
REMARK   30  A    between atoms: _68  and  _69
REMARK   31  A    between atoms: _68  and  _71
REMARK   32  A    between atoms: _71  and  _72
REMARK   33  A    between atoms: _72  and  _73
REMARK   34  A    between atoms: _73  and  _74
REMARK   35  A    between atoms: _74  and  _75
REMARK   36  A    between atoms: _79  and  _81
REMARK   37  A    between atoms: _81  and  _82
REMARK   38  A    between atoms: _81  and  _84
REMARK   39  A    between atoms: _84  and  _85
REMARK   40  A    between atoms: _85  and  _86
REMARK   41  A    between atoms: _86  and  _87
REMARK   42  A    between atoms: _96  and  _98
REMARK   43  A    between atoms: _98  and  _99
REMARK   44  A    between atoms: _102  and  _104
REMARK   45  A    between atoms: _104  and  _105
REMARK   46  A    between atoms: _104  and  _107
REMARK   47  A    between atoms: _107  and  _108
REMARK   48  A    between atoms: _111  and  _113
REMARK   49  A    between atoms: _113  and  _114
REMARK   50  A    between atoms: _113  and  _116
REMARK   51  A    between atoms: _116  and  _117
REMARK   52  A    between atoms: _123  and  _125
REMARK   53  A    between atoms: _125  and  _126
REMARK   54  A    between atoms: _125  and  _128
REMARK   55  A    between atoms: _128  and  _129
REMARK   56  A    between atoms: _132  and  _134
REMARK   57  A    between atoms: _134  and  _135
REMARK   58  A    between atoms: _134  and  _137
REMARK   59  A    between atoms: _137  and  _138
REMARK   60  A    between atoms: _141  and  _143
REMARK   61  A    between atoms: _143  and  _144
REMARK   62  A    between atoms: _143  and  _146
REMARK   63  A    between atoms: _146  and  _147
REMARK   64  A    between atoms: _150  and  _152
REMARK   65  A    between atoms: _152  and  _153
REMARK   66  A    between atoms: _152  and  _155
REMARK   67  A    between atoms: _155  and  _156
REMARK   68  A    between atoms: _156  and  _157
REMARK   69  A    between atoms: _157  and  _158
REMARK   70  A    between atoms: _167  and  _169
REMARK   71  A    between atoms: _169  and  _170
REMARK   72  A    between atoms: _169  and  _172
REMARK   73  A    between atoms: _172  and  _173
REMARK   74  A    between atoms: _179  and  _181
REMARK   75  A    between atoms: _181  and  _182
REMARK   76  A    between atoms: _181  and  _184
REMARK   77  A    between atoms: _184  and  _185
REMARK   78  A    between atoms: _188  and  _190
REMARK   79  A    between atoms: _190  and  _191
REMARK   80  A    between atoms: _190  and  _193
REMARK   81  A    between atoms: _193  and  _194
REMARK   82  A    between atoms: _197  and  _199
REMARK   83  A    between atoms: _199  and  _200
REMARK   84  A    between atoms: _203  and  _205
REMARK   85  A    between atoms: _205  and  _206
REMARK   86  A    between atoms: _205  and  _208
REMARK   87  A    between atoms: _208  and  _209
REMARK   88  A    between atoms: _209  and  _210
REMARK   89  A    between atoms: _215  and  _217
REMARK   90  A    between atoms: _217  and  _218
REMARK   91  A    between atoms: _221  and  _223
REMARK   92  A    between atoms: _223  and  _224
REMARK   93  A    between atoms: _227  and  _229
REMARK   94  A    between atoms: _229  and  _230
REMARK   95  A    between atoms: _229  and  _232
REMARK   96  A    between atoms: _232  and  _233
REMARK   97  A    between atoms: _236  and  _238
REMARK   98  A    between atoms: _238  and  _239
REMARK   99  A    between atoms: _238  and  _241
REMARK  100  A    between atoms: _241  and  _242
REMARK  101  A    between atoms: _245  and  _247
REMARK  102  A    between atoms: _247  and  _248
REMARK  103  A    between atoms: _247  and  _250
REMARK  104  A    between atoms: _250  and  _251
REMARK  105  A    between atoms: _251  and  _252
REMARK  106  A    between atoms: _252  and  _253
REMARK  107  A    between atoms: _253  and  _254
REMARK  108  A    between atoms: _258  and  _260
REMARK  109  A    between atoms: _260  and  _261
REMARK  110  A    between atoms: _260  and  _263
REMARK  111  A    between atoms: _263  and  _264
REMARK  112  A    between atoms: _269  and  _270
REMARK  113  A    between atoms: _272  and  _274
REMARK  114  A    between atoms: _274  and  _275
REMARK  115  A    between atoms: _274  and  _277
REMARK  116  A    between atoms: _277  and  _278
REMARK  117  A    between atoms: _280  and  _282
REMARK  118  A    between atoms: _282  and  _283
REMARK  119  A    between atoms: _282  and  _285
REMARK  120  A    between atoms: _288  and  _290
REMARK  121  A    between atoms: _290  and  _291
REMARK  122  A    between atoms: _290  and  _293
REMARK  123  A    between atoms: _293  and  _294
REMARK  124  A    between atoms: _297  and  _299
REMARK  125  A    between atoms: _299  and  _300
REMARK  126  A    between atoms: _299  and  _302
REMARK  127  A    between atoms: _302  and  _303
REMARK  128  A    between atoms: _305  and  _307
REMARK  129  A    between atoms: _307  and  _308
REMARK  130  A    between atoms: _307  and  _310
REMARK  131  A    between atoms: _310  and  _311
REMARK  132  A    between atoms: _314  and  _316
REMARK  133  A    between atoms: _316  and  _317
REMARK  134  A    between atoms: _316  and  _319
REMARK  135  A    between atoms: _319  and  _320
REMARK  136  A    between atoms: _320  and  _321
REMARK  137  A    between atoms: _326  and  _328
REMARK  138  A    between atoms: _328  and  _329
REMARK  139  A    between atoms: _328  and  _331
REMARK  140  A    between atoms: _331  and  _332
REMARK  141  A    between atoms: _334  and  _336
REMARK  142  A    between atoms: _336  and  _337
REMARK  143  A    between atoms: _336  and  _339
REMARK  144  A    between atoms: _339  and  _340
REMARK  145  A    between atoms: _345  and  _346
REMARK  146  A    between atoms: _348  and  _350
REMARK  147  A    between atoms: _350  and  _351
REMARK                            x       y       z     vdW  Elec       q    Type
REMARK                         _______ _______ _______ _____ _____    ______ ____
ROOT
ATOM      1  O   HOH     1      13.048  37.123  68.174  0.00  0.00    +0.000 OA
ENDROOT
TORSDOF 0
REMARK  Name = ../refined-set-2016/2v25/2v25_pocket.pdb
REMARK  147 active torsions:
REMARK  status: ('A' for Active; 'I' for Inactive)
REMARK    1  A    between atoms: _1  and  _3
REMARK    2  A    between atoms: _3  and  _4
REMARK    3  A    between atoms: _3  and  _6
REMARK    4  A    between atoms: _6  and  _7
REMARK    5  A    between atoms: _7  and  _8
REMARK    6  A    between atoms: _8  and  _9
REMARK    7  A    between atoms: _9  and  _10
REMARK    8  A    between atoms: _14  and  _16
REMARK    9  A    between atoms: _16  and  _17
REMARK   10  A    between atoms: _16  and  _19
REMARK   11  A    between atoms: _19  and  _20
REMARK   12  A    between atoms: _23  and  _25
REMARK   13  A    between atoms: _25  and  _26
REMARK   14  A    between atoms: _25  and  _28
REMARK   15  A    between atoms: _31  and  _33
REMARK   16  A    between atoms: _33  and  _34
REMARK   17  A    between atoms: _33  and  _36
REMARK   18  A    between atoms: _36  and  _37
REMARK   19  A    between atoms: _37  and  _38
REMARK   20  A    between atoms: _41  and  _43
REMARK   21  A    between atoms: _43  and  _44
REMARK   22  A    between atoms: _43  and  _46
REMARK   23  A    between atoms: _49  and  _51
REMARK   24  A    between atoms: _51  and  _52
REMARK   25  A    between atoms: _51  and  _54
REMARK   26  A    between atoms: _54  and  _55
REMARK   27  A    between atoms: _60  and  _62
REMARK   28  A    between atoms: _62  and  _63
REMARK   29  A    between atoms: _66  and  _68
REMARK   30  A    between atoms: _68  and  _69
REMARK   31  A    between atoms: _68  and  _71
REMARK   32  A    between atoms: _71  and  _72
REMARK   33  A    between atoms: _72  and  _73
REMARK   34  A    between atoms: _73  and  _74
REMARK   35  A    between atoms: _74  and  _75
REMARK   36  A    between atoms: _79  and  _81
REMARK   37  A    between atoms: _81  and  _82
REMARK   38  A    between atoms: _81  and  _84
REMARK   39  A    between atoms: _84  and  _85
REMARK   40  A    between atoms: _85  and  _86
REMARK   41  A    between atoms: _86  and  _87
REMARK   42  A    between atoms: _96  and  _98
REMARK   43  A    between atoms: _98  and  _99
REMARK   44  A    between atoms: _102  and  _104
REMARK   45  A    between atoms: _104  and  _105
REMARK   46  A    between atoms: _104  and  _107
REMARK   47  A    between atoms: _107  and  _108
REMARK   48  A    between atoms: _111  and  _113
REMARK   49  A    between atoms: _113  and  _114
REMARK   50  A    between atoms: _113  and  _116
REMARK   51  A    between atoms: _116  and  _117
REMARK   52  A    between atoms: _123  and  _125
REMARK   53  A    between atoms: _125  and  _126
REMARK   54  A    between atoms: _125  and  _128
REMARK   55  A    between atoms: _128  and  _129
REMARK   56  A    between atoms: _132  and  _134
REMARK   57  A    between atoms: _134  and  _135
REMARK   58  A    between atoms: _134  and  _137
REMARK   59  A    between atoms: _137  and  _138
REMARK   60  A    between atoms: _141  and  _143
REMARK   61  A    between atoms: _143  and  _144
REMARK   62  A    between atoms: _143  and  _146
REMARK   63  A    between atoms: _146  and  _147
REMARK   64  A    between atoms: _150  and  _152
REMARK   65  A    between atoms: _152  and  _153
REMARK   66  A    between atoms: _152  and  _155
REMARK   67  A    between atoms: _155  and  _156
REMARK   68  A    between atoms: _156  and  _157
REMARK   69  A    between atoms: _157  and  _158
REMARK   70  A    between atoms: _167  and  _169
REMARK   71  A    between atoms: _169  and  _170
REMARK   72  A    between atoms: _169  and  _172
REMARK   73  A    between atoms: _172  and  _173
REMARK   74  A    between atoms: _179  and  _181
REMARK   75  A    between atoms: _181  and  _182
REMARK   76  A    between atoms: _181  and  _184
REMARK   77  A    between atoms: _184  and  _185
REMARK   78  A    between atoms: _188  and  _190
REMARK   79  A    between atoms: _190  and  _191
REMARK   80  A    between atoms: _190  and  _193
REMARK   81  A    between atoms: _193  and  _194
REMARK   82  A    between atoms: _197  and  _199
REMARK   83  A    between atoms: _199  and  _200
REMARK   84  A    between atoms: _203  and  _205
REMARK   85  A    between atoms: _205  and  _206
REMARK   86  A    between atoms: _205  and  _208
REMARK   87  A    between atoms: _208  and  _209
REMARK   88  A    between atoms: _209  and  _210
REMARK   89  A    between atoms: _215  and  _217
REMARK   90  A    between atoms: _217  and  _218
REMARK   91  A    between atoms: _221  and  _223
REMARK   92  A    between atoms: _223  and  _224
REMARK   93  A    between atoms: _227  and  _229
REMARK   94  A    between atoms: _229  and  _230
REMARK   95  A    between atoms: _229  and  _232
REMARK   96  A    between atoms: _232  and  _233
REMARK   97  A    between atoms: _236  and  _238
REMARK   98  A    between atoms: _238  and  _239
REMARK   99  A    between atoms: _238  and  _241
REMARK  100  A    between atoms: _241  and  _242
REMARK  101  A    between atoms: _245  and  _247
REMARK  102  A    between atoms: _247  and  _248
REMARK  103  A    between atoms: _247  and  _250
REMARK  104  A    between atoms: _250  and  _251
REMARK  105  A    between atoms: _251  and  _252
REMARK  106  A    between atoms: _252  and  _253
REMARK  107  A    between atoms: _253  and  _254
REMARK  108  A    between atoms: _258  and  _260
REMARK  109  A    between atoms: _260  and  _261
REMARK  110  A    between atoms: _260  and  _263
REMARK  111  A    between atoms: _263  and  _264
REMARK  112  A    between atoms: _269  and  _270
REMARK  113  A    between atoms: _272  and  _274
REMARK  114  A    between atoms: _274  and  _275
REMARK  115  A    between atoms: _274  and  _277
REMARK  116  A    between atoms: _277  and  _278
REMARK  117  A    between atoms: _280  and  _282
REMARK  118  A    between atoms: _282  and  _283
REMARK  119  A    between atoms: _282  and  _285
REMARK  120  A    between atoms: _288  and  _290
REMARK  121  A    between atoms: _290  and  _291
REMARK  122  A    between atoms: _290  and  _293
REMARK  123  A    between atoms: _293  and  _294
REMARK  124  A    between atoms: _297  and  _299
REMARK  125  A    between atoms: _299  and  _300
REMARK  126  A    between atoms: _299  and  _302
REMARK  127  A    between atoms: _302  and  _303
REMARK  128  A    between atoms: _305  and  _307
REMARK  129  A    between atoms: _307  and  _308
REMARK  130  A    between atoms: _307  and  _310
REMARK  131  A    between atoms: _310  and  _311
REMARK  132  A    between atoms: _314  and  _316
REMARK  133  A    between atoms: _316  and  _317
REMARK  134  A    between atoms: _316  and  _319
REMARK  135  A    between atoms: _319  and  _320
REMARK  136  A    between atoms: _320  and  _321
REMARK  137  A    between atoms: _326  and  _328
REMARK  138  A    between atoms: _328  and  _329
REMARK  139  A    between atoms: _328  and  _331
REMARK  140  A    between atoms: _331  and  _332
REMARK  141  A    between atoms: _334  and  _336
REMARK  142  A    between atoms: _336  and  _337
REMARK  143  A    between atoms: _336  and  _339
REMARK  144  A    between atoms: _339  and  _340
REMARK  145  A    between atoms: _345  and  _346
REMARK  146  A    between atoms: _348  and  _350
REMARK  147  A    between atoms: _350  and  _351
REMARK                            x       y       z     vdW  Elec       q    Type
REMARK                         _______ _______ _______ _____ _____    ______ ____
ROOT
ATOM      1  O   HOH     1      12.975  41.958  58.008  0.00  0.00    +0.000 OA
ENDROOT
TORSDOF 0
REMARK  Name = ../refined-set-2016/2v25/2v25_pocket.pdb
REMARK  147 active torsions:
REMARK  status: ('A' for Active; 'I' for Inactive)
REMARK    1  A    between atoms: _1  and  _3
REMARK    2  A    between atoms: _3  and  _4
REMARK    3  A    between atoms: _3  and  _6
REMARK    4  A    between atoms: _6  and  _7
REMARK    5  A    between atoms: _7  and  _8
REMARK    6  A    between atoms: _8  and  _9
REMARK    7  A    between atoms: _9  and  _10
REMARK    8  A    between atoms: _14  and  _16
REMARK    9  A    between atoms: _16  and  _17
REMARK   10  A    between atoms: _16  and  _19
REMARK   11  A    between atoms: _19  and  _20
REMARK   12  A    between atoms: _23  and  _25
REMARK   13  A    between atoms: _25  and  _26
REMARK   14  A    between atoms: _25  and  _28
REMARK   15  A    between atoms: _31  and  _33
REMARK   16  A    between atoms: _33  and  _34
REMARK   17  A    between atoms: _33  and  _36
REMARK   18  A    between atoms: _36  and  _37
REMARK   19  A    between atoms: _37  and  _38
REMARK   20  A    between atoms: _41  and  _43
REMARK   21  A    between atoms: _43  and  _44
REMARK   22  A    between atoms: _43  and  _46
REMARK   23  A    between atoms: _49  and  _51
REMARK   24  A    between atoms: _51  and  _52
REMARK   25  A    between atoms: _51  and  _54
REMARK   26  A    between atoms: _54  and  _55
REMARK   27  A    between atoms: _60  and  _62
REMARK   28  A    between atoms: _62  and  _63
REMARK   29  A    between atoms: _66  and  _68
REMARK   30  A    between atoms: _68  and  _69
REMARK   31  A    between atoms: _68  and  _71
REMARK   32  A    between atoms: _71  and  _72
REMARK   33  A    between atoms: _72  and  _73
REMARK   34  A    between atoms: _73  and  _74
REMARK   35  A    between atoms: _74  and  _75
REMARK   36  A    between atoms: _79  and  _81
REMARK   37  A    between atoms: _81  and  _82
REMARK   38  A    between atoms: _81  and  _84
REMARK   39  A    between atoms: _84  and  _85
REMARK   40  A    between atoms: _85  and  _86
REMARK   41  A    between atoms: _86  and  _87
REMARK   42  A    between atoms: _96  and  _98
REMARK   43  A    between atoms: _98  and  _99
REMARK   44  A    between atoms: _102  and  _104
REMARK   45  A    between atoms: _104  and  _105
REMARK   46  A    between atoms: _104  and  _107
REMARK   47  A    between atoms: _107  and  _108
REMARK   48  A    between atoms: _111  and  _113
REMARK   49  A    between atoms: _113  and  _114
REMARK   50  A    between atoms: _113  and  _116
REMARK   51  A    between atoms: _116  and  _117
REMARK   52  A    between atoms: _123  and  _125
REMARK   53  A    between atoms: _125  and  _126
REMARK   54  A    between atoms: _125  and  _128
REMARK   55  A    between atoms: _128  and  _129
REMARK   56  A    between atoms: _132  and  _134
REMARK   57  A    between atoms: _134  and  _135
REMARK   58  A    between atoms: _134  and  _137
REMARK   59  A    between atoms: _137  and  _138
REMARK   60  A    between atoms: _141  and  _143
REMARK   61  A    between atoms: _143  and  _144
REMARK   62  A    between atoms: _143  and  _146
REMARK   63  A    between atoms: _146  and  _147
REMARK   64  A    between atoms: _150  and  _152
REMARK   65  A    between atoms: _152  and  _153
REMARK   66  A    between atoms: _152  and  _155
REMARK   67  A    between atoms: _155  and  _156
REMARK   68  A    between atoms: _156  and  _157
REMARK   69  A    between atoms: _157  and  _158
REMARK   70  A    between atoms: _167  and  _169
REMARK   71  A    between atoms: _169  and  _170
REMARK   72  A    between atoms: _169  and  _172
REMARK   73  A    between atoms: _172  and  _173
REMARK   74  A    between atoms: _179  and  _181
REMARK   75  A    between atoms: _181  and  _182
REMARK   76  A    between atoms: _181  and  _184
REMARK   77  A    between atoms: _184  and  _185
REMARK   78  A    between atoms: _188  and  _190
REMARK   79  A    between atoms: _190  and  _191
REMARK   80  A    between atoms: _190  and  _193
REMARK   81  A    between atoms: _193  and  _194
REMARK   82  A    between atoms: _197  and  _199
REMARK   83  A    between atoms: _199  and  _200
REMARK   84  A    between atoms: _203  and  _205
REMARK   85  A    between atoms: _205  and  _206
REMARK   86  A    between atoms: _205  and  _208
REMARK   87  A    between atoms: _208  and  _209
REMARK   88  A    between atoms: _209  and  _210
REMARK   89  A    between atoms: _215  and  _217
REMARK   90  A    between atoms: _217  and  _218
REMARK   91  A    between atoms: _221  and  _223
REMARK   92  A    between atoms: _223  and  _224
REMARK   93  A    between atoms: _227  and  _229
REMARK   94  A    between atoms: _229  and  _230
REMARK   95  A    between atoms: _229  and  _232
REMARK   96  A    between atoms: _232  and  _233
REMARK   97  A    between atoms: _236  and  _238
REMARK   98  A    between atoms: _238  and  _239
REMARK   99  A    between atoms: _238  and  _241
REMARK  100  A    between atoms: _241  and  _242
REMARK  101  A    between atoms: _245  and  _247
REMARK  102  A    between atoms: _247  and  _248
REMARK  103  A    between atoms: _247  and  _250
REMARK  104  A    between atoms: _250  and  _251
REMARK  105  A    between atoms: _251  and  _252
REMARK  106  A    between atoms: _252  and  _253
REMARK  107  A    between atoms: _253  and  _254
REMARK  108  A    between atoms: _258  and  _260
REMARK  109  A    between atoms: _260  and  _261
REMARK  110  A    between atoms: _260  and  _263
REMARK  111  A    between atoms: _263  and  _264
REMARK  112  A    between atoms: _269  and  _270
REMARK  113  A    between atoms: _272  and  _274
REMARK  114  A    between atoms: _274  and  _275
REMARK  115  A    between atoms: _274  and  _277
REMARK  116  A    between atoms: _277  and  _278
REMARK  117  A    between atoms: _280  and  _282
REMARK  118  A    between atoms: _282  and  _283
REMARK  119  A    between atoms: _282  and  _285
REMARK  120  A    between atoms: _288  and  _290
REMARK  121  A    between atoms: _290  and  _291
REMARK  122  A    between atoms: _290  and  _293
REMARK  123  A    between atoms: _293  and  _294
REMARK  124  A    between atoms: _297  and  _299
REMARK  125  A    between atoms: _299  and  _300
REMARK  126  A    between atoms: _299  and  _302
REMARK  127  A    between atoms: _302  and  _303
REMARK  128  A    between atoms: _305  and  _307
REMARK  129  A    between atoms: _307  and  _308
REMARK  130  A    between atoms: _307  and  _310
REMARK  131  A    between atoms: _310  and  _311
REMARK  132  A    between atoms: _314  and  _316
REMARK  133  A    between atoms: _316  and  _317
REMARK  134  A    between atoms: _316  and  _319
REMARK  135  A    between atoms: _319  and  _320
REMARK  136  A    between atoms: _320  and  _321
REMARK  137  A    between atoms: _326  and  _328
REMARK  138  A    between atoms: _328  and  _329
REMARK  139  A    between atoms: _328  and  _331
REMARK  140  A    between atoms: _331  and  _332
REMARK  141  A    between atoms: _334  and  _336
REMARK  142  A    between atoms: _336  and  _337
REMARK  143  A    between atoms: _336  and  _339
REMARK  144  A    between atoms: _339  and  _340
REMARK  145  A    between atoms: _345  and  _346
REMARK  146  A    between atoms: _348  and  _350
REMARK  147  A    between atoms: _350  and  _351
REMARK                            x       y       z     vdW  Elec       q    Type
REMARK                         _______ _______ _______ _____ _____    ______ ____
ROOT
ATOM      1  O   HOH     1      13.524  39.986  53.173  0.00  0.00    +0.000 OA
ENDROOT
TORSDOF 0
REMARK  Name = ../refined-set-2016/2v25/2v25_pocket.pdb
REMARK  147 active torsions:
REMARK  status: ('A' for Active; 'I' for Inactive)
REMARK    1  A    between atoms: _1  and  _3
REMARK    2  A    between atoms: _3  and  _4
REMARK    3  A    between atoms: _3  and  _6
REMARK    4  A    between atoms: _6  and  _7
REMARK    5  A    between atoms: _7  and  _8
REMARK    6  A    between atoms: _8  and  _9
REMARK    7  A    between atoms: _9  and  _10
REMARK    8  A    between atoms: _14  and  _16
REMARK    9  A    between atoms: _16  and  _17
REMARK   10  A    between atoms: _16  and  _19
REMARK   11  A    between atoms: _19  and  _20
REMARK   12  A    between atoms: _23  and  _25
REMARK   13  A    between atoms: _25  and  _26
REMARK   14  A    between atoms: _25  and  _28
REMARK   15  A    between atoms: _31  and  _33
REMARK   16  A    between atoms: _33  and  _34
REMARK   17  A    between atoms: _33  and  _36
REMARK   18  A    between atoms: _36  and  _37
REMARK   19  A    between atoms: _37  and  _38
REMARK   20  A    between atoms: _41  and  _43
REMARK   21  A    between atoms: _43  and  _44
REMARK   22  A    between atoms: _43  and  _46
REMARK   23  A    between atoms: _49  and  _51
REMARK   24  A    between atoms: _51  and  _52
REMARK   25  A    between atoms: _51  and  _54
REMARK   26  A    between atoms: _54  and  _55
REMARK   27  A    between atoms: _60  and  _62
REMARK   28  A    between atoms: _62  and  _63
REMARK   29  A    between atoms: _66  and  _68
REMARK   30  A    between atoms: _68  and  _69
REMARK   31  A    between atoms: _68  and  _71
REMARK   32  A    between atoms: _71  and  _72
REMARK   33  A    between atoms: _72  and  _73
REMARK   34  A    between atoms: _73  and  _74
REMARK   35  A    between atoms: _74  and  _75
REMARK   36  A    between atoms: _79  and  _81
REMARK   37  A    between atoms: _81  and  _82
REMARK   38  A    between atoms: _81  and  _84
REMARK   39  A    between atoms: _84  and  _85
REMARK   40  A    between atoms: _85  and  _86
REMARK   41  A    between atoms: _86  and  _87
REMARK   42  A    between atoms: _96  and  _98
REMARK   43  A    between atoms: _98  and  _99
REMARK   44  A    between atoms: _102  and  _104
REMARK   45  A    between atoms: _104  and  _105
REMARK   46  A    between atoms: _104  and  _107
REMARK   47  A    between atoms: _107  and  _108
REMARK   48  A    between atoms: _111  and  _113
REMARK   49  A    between atoms: _113  and  _114
REMARK   50  A    between atoms: _113  and  _116
REMARK   51  A    between atoms: _116  and  _117
REMARK   52  A    between atoms: _123  and  _125
REMARK   53  A    between atoms: _125  and  _126
REMARK   54  A    between atoms: _125  and  _128
REMARK   55  A    between atoms: _128  and  _129
REMARK   56  A    between atoms: _132  and  _134
REMARK   57  A    between atoms: _134  and  _135
REMARK   58  A    between atoms: _134  and  _137
REMARK   59  A    between atoms: _137  and  _138
REMARK   60  A    between atoms: _141  and  _143
REMARK   61  A    between atoms: _143  and  _144
REMARK   62  A    between atoms: _143  and  _146
REMARK   63  A    between atoms: _146  and  _147
REMARK   64  A    between atoms: _150  and  _152
REMARK   65  A    between atoms: _152  and  _153
REMARK   66  A    between atoms: _152  and  _155
REMARK   67  A    between atoms: _155  and  _156
REMARK   68  A    between atoms: _156  and  _157
REMARK   69  A    between atoms: _157  and  _158
REMARK   70  A    between atoms: _167  and  _169
REMARK   71  A    between atoms: _169  and  _170
REMARK   72  A    between atoms: _169  and  _172
REMARK   73  A    between atoms: _172  and  _173
REMARK   74  A    between atoms: _179  and  _181
REMARK   75  A    between atoms: _181  and  _182
REMARK   76  A    between atoms: _181  and  _184
REMARK   77  A    between atoms: _184  and  _185
REMARK   78  A    between atoms: _188  and  _190
REMARK   79  A    between atoms: _190  and  _191
REMARK   80  A    between atoms: _190  and  _193
REMARK   81  A    between atoms: _193  and  _194
REMARK   82  A    between atoms: _197  and  _199
REMARK   83  A    between atoms: _199  and  _200
REMARK   84  A    between atoms: _203  and  _205
REMARK   85  A    between atoms: _205  and  _206
REMARK   86  A    between atoms: _205  and  _208
REMARK   87  A    between atoms: _208  and  _209
REMARK   88  A    between atoms: _209  and  _210
REMARK   89  A    between atoms: _215  and  _217
REMARK   90  A    between atoms: _217  and  _218
REMARK   91  A    between atoms: _221  and  _223
REMARK   92  A    between atoms: _223  and  _224
REMARK   93  A    between atoms: _227  and  _229
REMARK   94  A    between atoms: _229  and  _230
REMARK   95  A    between atoms: _229  and  _232
REMARK   96  A    between atoms: _232  and  _233
REMARK   97  A    between atoms: _236  and  _238
REMARK   98  A    between atoms: _238  and  _239
REMARK   99  A    between atoms: _238  and  _241
REMARK  100  A    between atoms: _241  and  _242
REMARK  101  A    between atoms: _245  and  _247
REMARK  102  A    between atoms: _247  and  _248
REMARK  103  A    between atoms: _247  and  _250
REMARK  104  A    between atoms: _250  and  _251
REMARK  105  A    between atoms: _251  and  _252
REMARK  106  A    between atoms: _252  and  _253
REMARK  107  A    between atoms: _253  and  _254
REMARK  108  A    between atoms: _258  and  _260
REMARK  109  A    between atoms: _260  and  _261
REMARK  110  A    between atoms: _260  and  _263
REMARK  111  A    between atoms: _263  and  _264
REMARK  112  A    between atoms: _269  and  _270
REMARK  113  A    between atoms: _272  and  _274
REMARK  114  A    between atoms: _274  and  _275
REMARK  115  A    between atoms: _274  and  _277
REMARK  116  A    between atoms: _277  and  _278
REMARK  117  A    between atoms: _280  and  _282
REMARK  118  A    between atoms: _282  and  _283
REMARK  119  A    between atoms: _282  and  _285
REMARK  120  A    between atoms: _288  and  _290
REMARK  121  A    between atoms: _290  and  _291
REMARK  122  A    between atoms: _290  and  _293
REMARK  123  A    between atoms: _293  and  _294
REMARK  124  A    between atoms: _297  and  _299
REMARK  125  A    between atoms: _299  and  _300
REMARK  126  A    between atoms: _299  and  _302
REMARK  127  A    between atoms: _302  and  _303
REMARK  128  A    between atoms: _305  and  _307
REMARK  129  A    between atoms: _307  and  _308
REMARK  130  A    between atoms: _307  and  _310
REMARK  131  A    between atoms: _310  and  _311
REMARK  132  A    between atoms: _314  and  _316
REMARK  133  A    between atoms: _316  and  _317
REMARK  134  A    between atoms: _316  and  _319
REMARK  135  A    between atoms: _319  and  _320
REMARK  136  A    between atoms: _320  and  _321
REMARK  137  A    between atoms: _326  and  _328
REMARK  138  A    between atoms: _328  and  _329
REMARK  139  A    between atoms: _328  and  _331
REMARK  140  A    between atoms: _331  and  _332
REMARK  141  A    between atoms: _334  and  _336
REMARK  142  A    between atoms: _336  and  _337
REMARK  143  A    between atoms: _336  and  _339
REMARK  144  A    between atoms: _339  and  _340
REMARK  145  A    between atoms: _345  and  _346
REMARK  146  A    between atoms: _348  and  _350
REMARK  147  A    between atoms: _350  and  _351
REMARK                            x       y       z     vdW  Elec       q    Type
REMARK                         _______ _______ _______ _____ _____    ______ ____
ROOT
ATOM      1  O   HOH     1       8.641  31.431  67.400  0.00  0.00    +0.000 OA
ENDROOT
TORSDOF 0
