REMARK  Name = ../refined-set-2016/3lzz/3lzz_pocket.pdb
REMARK  130 active torsions:
REMARK  status: ('A' for Active; 'I' for Inactive)
REMARK    1  A    between atoms: _1  and  _3
REMARK    2  A    between atoms: _3  and  _4
REMARK    3  A    between atoms: _3  and  _6
REMARK    4  A    between atoms: _6  and  _7
REMARK    5  A    between atoms: _11  and  _12
REMARK    6  A    between atoms: _17  and  _19
REMARK    7  A    between atoms: _19  and  _20
REMARK    8  A    between atoms: _19  and  _22
REMARK    9  A    between atoms: _22  and  _23
REMARK   10  A    between atoms: _29  and  _30
REMARK   11  A    between atoms: _35  and  _37
REMARK   12  A    between atoms: _37  and  _38
REMARK   13  A    between atoms: _41  and  _43
REMARK   14  A    between atoms: _43  and  _44
REMARK   15  A    between atoms: _43  and  _46
REMARK   16  A    between atoms: _46  and  _47
REMARK   17  A    between atoms: _53  and  _55
REMARK   18  A    between atoms: _55  and  _56
REMARK   19  A    between atoms: _55  and  _58
REMARK   20  A    between atoms: _58  and  _59
REMARK   21  A    between atoms: _59  and  _60
REMARK   22  A    between atoms: _60  and  _61
REMARK   23  A    between atoms: _70  and  _72
REMARK   24  A    between atoms: _72  and  _73
REMARK   25  A    between atoms: _72  and  _75
REMARK   26  A    between atoms: _75  and  _76
REMARK   27  A    between atoms: _76  and  _77
REMARK   28  A    between atoms: _80  and  _82
REMARK   29  A    between atoms: _82  and  _83
REMARK   30  A    between atoms: _82  and  _85
REMARK   31  A    between atoms: _85  and  _86
REMARK   32  A    between atoms: _89  and  _91
REMARK   33  A    between atoms: _91  and  _92
REMARK   34  A    between atoms: _91  and  _94
REMARK   35  A    between atoms: _94  and  _95
REMARK   36  A    between atoms: _100  and  _101
REMARK   37  A    between atoms: _103  and  _105
REMARK   38  A    between atoms: _105  and  _106
REMARK   39  A    between atoms: _105  and  _108
REMARK   40  A    between atoms: _108  and  _109
REMARK   41  A    between atoms: _109  and  _110
REMARK   42  A    between atoms: _110  and  _111
REMARK   43  A    between atoms: _120  and  _122
REMARK   44  A    between atoms: _122  and  _123
REMARK   45  A    between atoms: _122  and  _125
REMARK   46  A    between atoms: _125  and  _126
REMARK   47  A    between atoms: _129  and  _131
REMARK   48  A    between atoms: _131  and  _132
REMARK   49  A    between atoms: _131  and  _134
REMARK   50  A    between atoms: _134  and  _135
REMARK   51  A    between atoms: _138  and  _140
REMARK   52  A    between atoms: _140  and  _141
REMARK   53  A    between atoms: _140  and  _143
REMARK   54  A    between atoms: _143  and  _144
REMARK   55  A    between atoms: _144  and  _145
REMARK   56  A    between atoms: _147  and  _149
REMARK   57  A    between atoms: _149  and  _150
REMARK   58  A    between atoms: _149  and  _152
REMARK   59  A    between atoms: _152  and  _153
REMARK   60  A    between atoms: _156  and  _158
REMARK   61  A    between atoms: _158  and  _159
REMARK   62  A    between atoms: _158  and  _161
REMARK   63  A    between atoms: _161  and  _162
REMARK   64  A    between atoms: _167  and  _168
REMARK   65  A    between atoms: _170  and  _172
REMARK   66  A    between atoms: _172  and  _173
REMARK   67  A    between atoms: _172  and  _175
REMARK   68  A    between atoms: _175  and  _176
REMARK   69  A    between atoms: _181  and  _182
REMARK   70  A    between atoms: _184  and  _186
REMARK   71  A    between atoms: _186  and  _187
REMARK   72  A    between atoms: _186  and  _189
REMARK   73  A    between atoms: _189  and  _190
REMARK   74  A    between atoms: _193  and  _195
REMARK   75  A    between atoms: _195  and  _196
REMARK   76  A    between atoms: _195  and  _198
REMARK   77  A    between atoms: _198  and  _199
REMARK   78  A    between atoms: _204  and  _206
REMARK   79  A    between atoms: _206  and  _207
REMARK   80  A    between atoms: _206  and  _209
REMARK   81  A    between atoms: _212  and  _214
REMARK   82  A    between atoms: _214  and  _215
REMARK   83  A    between atoms: _214  and  _217
REMARK   84  A    between atoms: _217  and  _218
REMARK   85  A    between atoms: _218  and  _219
REMARK   86  A    between atoms: _222  and  _224
REMARK   87  A    between atoms: _224  and  _225
REMARK   88  A    between atoms: _224  and  _227
REMARK   89  A    between atoms: _227  and  _228
REMARK   90  A    between atoms: _231  and  _233
REMARK   91  A    between atoms: _233  and  _234
REMARK   92  A    between atoms: _233  and  _236
REMARK   93  A    between atoms: _236  and  _237
REMARK   94  A    between atoms: _243  and  _245
REMARK   95  A    between atoms: _245  and  _246
REMARK   96  A    between atoms: _245  and  _248
REMARK   97  A    between atoms: _248  and  _249
REMARK   98  A    between atoms: _255  and  _257
REMARK   99  A    between atoms: _257  and  _258
REMARK  100  A    between atoms: _257  and  _260
REMARK  101  A    between atoms: _260  and  _261
REMARK  102  A    between atoms: _261  and  _262
REMARK  103  A    between atoms: _267  and  _269
REMARK  104  A    between atoms: _269  and  _270
REMARK  105  A    between atoms: _269  and  _272
REMARK  106  A    between atoms: _275  and  _277
REMARK  107  A    between atoms: _277  and  _278
REMARK  108  A    between atoms: _277  and  _280
REMARK  109  A    between atoms: _280  and  _281
REMARK  110  A    between atoms: _284  and  _286
REMARK  111  A    between atoms: _286  and  _287
REMARK  112  A    between atoms: _286  and  _289
REMARK  113  A    between atoms: _292  and  _294
REMARK  114  A    between atoms: _294  and  _295
REMARK  115  A    between atoms: _297  and  _299
REMARK  116  A    between atoms: _299  and  _300
REMARK  117  A    between atoms: _299  and  _302
REMARK  118  A    between atoms: _302  and  _303
REMARK  119  A    between atoms: _309  and  _311
REMARK  120  A    between atoms: _311  and  _312
REMARK  121  A    between atoms: _311  and  _314
REMARK  122  A    between atoms: _314  and  _315
REMARK  123  A    between atoms: _318  and  _320
REMARK  124  A    between atoms: _320  and  _321
REMARK  125  A    between atoms: _320  and  _323
REMARK  126  A    between atoms: _323  and  _324
REMARK  127  A    between atoms: _330  and  _332
REMARK  128  A    between atoms: _332  and  _333
REMARK  129  A    between atoms: _332  and  _335
REMARK  130  A    between atoms: _335  and  _336
REMARK                            x       y       z     vdW  Elec       q    Type
REMARK                         _______ _______ _______ _____ _____    ______ ____
ROOT
ATOM      1  CA  HIS A   3     -28.134 -14.830  10.362  0.00  0.00    +0.155 C 
ENDROOT
BRANCH   1   2
ATOM      2  C   HIS A   3     -29.016 -14.084  11.372  0.00  0.00    +0.244 C 
ATOM      3  O   HIS A   3     -29.934 -14.720  11.896  0.00  0.00    -0.273 OA
ATOM      4  N   PRO A   4     -28.688 -12.793  11.726  0.00  0.00    -0.272 N 
ATOM      5  CA  PRO A   4     -29.449 -12.096  12.800  0.00  0.00    +0.152 C 
ATOM      6  CB  PRO A   4     -28.950 -10.645  12.734  0.00  0.00    +0.031 C 
ATOM      7  CG  PRO A   4     -27.514 -10.774  12.225  0.00  0.00    +0.024 C 
ATOM      8  CD  PRO A   4     -27.424 -12.086  11.417  0.00  0.00    +0.094 C 
BRANCH   5   9
ATOM      9  C   PRO A   4     -30.906 -12.176  12.508  0.00  0.00    +0.241 C 
ATOM     10  O   PRO A   4     -31.654 -12.682  13.332  0.00  0.00    -0.273 OA
ATOM     11  N   ALA A   5     -31.322 -11.741  11.329  0.00  0.00    -0.298 N 
ATOM     12  H   ALA A   5     -30.632 -11.282  10.700  0.00  0.00    +0.150 HD
BRANCH  11  13
ATOM     13  CA  ALA A   5     -32.714 -11.874  10.863  0.00  0.00    +0.137 C 
ATOM     14  CB  ALA A   5     -33.068 -10.692  10.038  0.00  0.00    +0.030 C 
BRANCH  13  15
ATOM     15  C   ALA A   5     -32.999 -13.125  10.056  0.00  0.00    +0.227 C 
ATOM     16  O   ALA A   5     -33.438 -13.020   8.961  0.00  0.00    -0.286 OA
ENDBRANCH  13  15
ENDBRANCH  11  13
ENDBRANCH   5   9
ENDBRANCH   1   2
BRANCH   1  19
ATOM     17  C   PRO A   2     -26.809 -16.256  11.929  0.00  0.00    +0.241 C 
ATOM     18  O   PRO A   2     -26.439 -15.299  12.625  0.00  0.00    -0.273 OA
ATOM     19  N   HIS A   3     -27.725 -16.135  10.956  0.00  0.00    -0.297 N 
ATOM     20  H   HIS A   3     -28.175 -17.001  10.596  0.00  0.00    +0.150 HD
BRANCH  17  26
ATOM     21  C   THR A   1     -23.857 -17.312  11.404  0.00  0.00    +0.244 C 
ATOM     22  N   PRO A   2     -24.672 -17.608  12.434  0.00  0.00    -0.272 N 
ATOM     23  CD  PRO A   2     -24.369 -18.100  13.790  0.00  0.00    +0.094 C 
ATOM     24  CG  PRO A   2     -25.487 -19.040  14.034  0.00  0.00    +0.024 C 
ATOM     25  CB  PRO A   2     -26.728 -18.371  13.352  0.00  0.00    +0.031 C 
ATOM     26  CA  PRO A   2     -26.155 -17.658  12.136  0.00  0.00    +0.152 C 
ATOM     27  O   THR A   1     -24.292 -17.059  10.323  0.00  0.00    -0.273 OA
BRANCH  21  28
ATOM     28  CA  THR A   1     -22.348 -17.329  11.594  0.00  0.00    +0.172 C 
BRANCH  28  29
ATOM     29  N   THR A   1     -21.732 -17.451  10.305  0.00  0.00    -0.236 NA
ATOM     30  H   THR A   1     -21.916 -16.726   9.582  0.00  0.00    +0.142 HD
ENDBRANCH  28  29
BRANCH  28  31
ATOM     31  CB  THR A   1     -21.855 -16.097  12.297  0.00  0.00    +0.135 C 
ATOM     32  CG2 THR A   1     -22.582 -14.829  11.828  0.00  0.00    +0.034 C 
BRANCH  31  33
ATOM     33  OG1 THR A   1     -22.116 -16.305  13.693  0.00  0.00    -0.383 OA
ATOM     34  HG1 THR A   1     -21.631 -17.111  14.002  0.00  0.00    +0.210 HD
ENDBRANCH  31  33
ENDBRANCH  28  31
ENDBRANCH  21  28
ENDBRANCH  17  26
ENDBRANCH   1  19
BRANCH   1  35
ATOM     35  CB  HIS A   3     -28.891 -15.101   9.029  0.00  0.00    +0.076 C 
BRANCH  35  36
ATOM     36  CG  HIS A   3     -29.197 -13.882   8.204  0.00  0.00    +0.082 A 
ATOM     37  CD2 HIS A   3     -28.276 -12.879   7.963  0.00  0.00    +0.115 A 
ATOM     38  NE2 HIS A   3     -28.823 -11.958   7.185  0.00  0.00    -0.221 NA
ATOM     39  CE1 HIS A   3     -30.063 -12.333   6.903  0.00  0.00    +0.199 A 
ATOM     40  ND1 HIS A   3     -30.316 -13.540   7.514  0.00  0.00    -0.227 NA
ENDBRANCH  35  36
ENDBRANCH   1  35
TORSDOF 12
REMARK  Name = ../refined-set-2016/3lzz/3lzz_pocket.pdb
REMARK  130 active torsions:
REMARK  status: ('A' for Active; 'I' for Inactive)
REMARK    1  A    between atoms: _1  and  _3
REMARK    2  A    between atoms: _3  and  _4
REMARK    3  A    between atoms: _3  and  _6
REMARK    4  A    between atoms: _6  and  _7
REMARK    5  A    between atoms: _11  and  _12
REMARK    6  A    between atoms: _17  and  _19
REMARK    7  A    between atoms: _19  and  _20
REMARK    8  A    between atoms: _19  and  _22
REMARK    9  A    between atoms: _22  and  _23
REMARK   10  A    between atoms: _29  and  _30
REMARK   11  A    between atoms: _35  and  _37
REMARK   12  A    between atoms: _37  and  _38
REMARK   13  A    between atoms: _41  and  _43
REMARK   14  A    between atoms: _43  and  _44
REMARK   15  A    between atoms: _43  and  _46
REMARK   16  A    between atoms: _46  and  _47
REMARK   17  A    between atoms: _53  and  _55
REMARK   18  A    between atoms: _55  and  _56
REMARK   19  A    between atoms: _55  and  _58
REMARK   20  A    between atoms: _58  and  _59
REMARK   21  A    between atoms: _59  and  _60
REMARK   22  A    between atoms: _60  and  _61
REMARK   23  A    between atoms: _70  and  _72
REMARK   24  A    between atoms: _72  and  _73
REMARK   25  A    between atoms: _72  and  _75
REMARK   26  A    between atoms: _75  and  _76
REMARK   27  A    between atoms: _76  and  _77
REMARK   28  A    between atoms: _80  and  _82
REMARK   29  A    between atoms: _82  and  _83
REMARK   30  A    between atoms: _82  and  _85
REMARK   31  A    between atoms: _85  and  _86
REMARK   32  A    between atoms: _89  and  _91
REMARK   33  A    between atoms: _91  and  _92
REMARK   34  A    between atoms: _91  and  _94
REMARK   35  A    between atoms: _94  and  _95
REMARK   36  A    between atoms: _100  and  _101
REMARK   37  A    between atoms: _103  and  _105
REMARK   38  A    between atoms: _105  and  _106
REMARK   39  A    between atoms: _105  and  _108
REMARK   40  A    between atoms: _108  and  _109
REMARK   41  A    between atoms: _109  and  _110
REMARK   42  A    between atoms: _110  and  _111
REMARK   43  A    between atoms: _120  and  _122
REMARK   44  A    between atoms: _122  and  _123
REMARK   45  A    between atoms: _122  and  _125
REMARK   46  A    between atoms: _125  and  _126
REMARK   47  A    between atoms: _129  and  _131
REMARK   48  A    between atoms: _131  and  _132
REMARK   49  A    between atoms: _131  and  _134
REMARK   50  A    between atoms: _134  and  _135
REMARK   51  A    between atoms: _138  and  _140
REMARK   52  A    between atoms: _140  and  _141
REMARK   53  A    between atoms: _140  and  _143
REMARK   54  A    between atoms: _143  and  _144
REMARK   55  A    between atoms: _144  and  _145
REMARK   56  A    between atoms: _147  and  _149
REMARK   57  A    between atoms: _149  and  _150
REMARK   58  A    between atoms: _149  and  _152
REMARK   59  A    between atoms: _152  and  _153
REMARK   60  A    between atoms: _156  and  _158
REMARK   61  A    between atoms: _158  and  _159
REMARK   62  A    between atoms: _158  and  _161
REMARK   63  A    between atoms: _161  and  _162
REMARK   64  A    between atoms: _167  and  _168
REMARK   65  A    between atoms: _170  and  _172
REMARK   66  A    between atoms: _172  and  _173
REMARK   67  A    between atoms: _172  and  _175
REMARK   68  A    between atoms: _175  and  _176
REMARK   69  A    between atoms: _181  and  _182
REMARK   70  A    between atoms: _184  and  _186
REMARK   71  A    between atoms: _186  and  _187
REMARK   72  A    between atoms: _186  and  _189
REMARK   73  A    between atoms: _189  and  _190
REMARK   74  A    between atoms: _193  and  _195
REMARK   75  A    between atoms: _195  and  _196
REMARK   76  A    between atoms: _195  and  _198
REMARK   77  A    between atoms: _198  and  _199
REMARK   78  A    between atoms: _204  and  _206
REMARK   79  A    between atoms: _206  and  _207
REMARK   80  A    between atoms: _206  and  _209
REMARK   81  A    between atoms: _212  and  _214
REMARK   82  A    between atoms: _214  and  _215
REMARK   83  A    between atoms: _214  and  _217
REMARK   84  A    between atoms: _217  and  _218
REMARK   85  A    between atoms: _218  and  _219
REMARK   86  A    between atoms: _222  and  _224
REMARK   87  A    between atoms: _224  and  _225
REMARK   88  A    between atoms: _224  and  _227
REMARK   89  A    between atoms: _227  and  _228
REMARK   90  A    between atoms: _231  and  _233
REMARK   91  A    between atoms: _233  and  _234
REMARK   92  A    between atoms: _233  and  _236
REMARK   93  A    between atoms: _236  and  _237
REMARK   94  A    between atoms: _243  and  _245
REMARK   95  A    between atoms: _245  and  _246
REMARK   96  A    between atoms: _245  and  _248
REMARK   97  A    between atoms: _248  and  _249
REMARK   98  A    between atoms: _255  and  _257
REMARK   99  A    between atoms: _257  and  _258
REMARK  100  A    between atoms: _257  and  _260
REMARK  101  A    between atoms: _260  and  _261
REMARK  102  A    between atoms: _261  and  _262
REMARK  103  A    between atoms: _267  and  _269
REMARK  104  A    between atoms: _269  and  _270
REMARK  105  A    between atoms: _269  and  _272
REMARK  106  A    between atoms: _275  and  _277
REMARK  107  A    between atoms: _277  and  _278
REMARK  108  A    between atoms: _277  and  _280
REMARK  109  A    between atoms: _280  and  _281
REMARK  110  A    between atoms: _284  and  _286
REMARK  111  A    between atoms: _286  and  _287
REMARK  112  A    between atoms: _286  and  _289
REMARK  113  A    between atoms: _292  and  _294
REMARK  114  A    between atoms: _294  and  _295
REMARK  115  A    between atoms: _297  and  _299
REMARK  116  A    between atoms: _299  and  _300
REMARK  117  A    between atoms: _299  and  _302
REMARK  118  A    between atoms: _302  and  _303
REMARK  119  A    between atoms: _309  and  _311
REMARK  120  A    between atoms: _311  and  _312
REMARK  121  A    between atoms: _311  and  _314
REMARK  122  A    between atoms: _314  and  _315
REMARK  123  A    between atoms: _318  and  _320
REMARK  124  A    between atoms: _320  and  _321
REMARK  125  A    between atoms: _320  and  _323
REMARK  126  A    between atoms: _323  and  _324
REMARK  127  A    between atoms: _330  and  _332
REMARK  128  A    between atoms: _332  and  _333
REMARK  129  A    between atoms: _332  and  _335
REMARK  130  A    between atoms: _335  and  _336
REMARK                            x       y       z     vdW  Elec       q    Type
REMARK                         _______ _______ _______ _____ _____    ______ ____
ROOT
ATOM      1  C   GLU A   3     -18.551 -10.858   4.056  0.00  0.00    +0.241 C 
ATOM      2  O   GLU A   3     -17.696 -10.712   4.912  0.00  0.00    -0.273 OA
ATOM      3  N   THR A   4     -18.288 -11.232   2.797  0.00  0.00    -0.295 N 
ATOM      4  H   THR A   4     -19.078 -11.285   2.122  0.00  0.00    +0.150 HD
ENDROOT
BRANCH   3   5
ATOM      5  CA  THR A   4     -16.942 -11.570   2.323  0.00  0.00    +0.176 C 
BRANCH   5   6
ATOM      6  C   THR A   4     -16.328 -10.437   1.567  0.00  0.00    +0.243 C 
ATOM      7  O   THR A   4     -15.138 -10.421   1.409  0.00  0.00    -0.273 OA
ATOM      8  N   TYR A   5     -17.103  -9.472   1.107  0.00  0.00    -0.297 N 
ATOM      9  H   TYR A   5     -18.116  -9.468   1.344  0.00  0.00    +0.150 HD
BRANCH   8  10
ATOM     10  CA  TYR A   5     -16.555  -8.414   0.271  0.00  0.00    +0.153 C 
BRANCH  10  11
ATOM     11  C   TYR A   5     -17.407  -7.156   0.348  0.00  0.00    +0.241 C 
ATOM     12  N   ARG A   6     -16.758  -6.016   0.378  0.00  0.00    -0.298 N 
ATOM     13  H   ARG A   6     -15.719  -6.053   0.408  0.00  0.00    +0.150 HD
ATOM     14  O   TYR A   5     -18.657  -7.243   0.365  0.00  0.00    -0.273 OA
BRANCH  12  15
ATOM     15  CA  ARG A   6     -17.375  -4.731   0.373  0.00  0.00    +0.137 C 
BRANCH  15  16
ATOM     16  C   ARG A   6     -16.462  -3.846  -0.403  0.00  0.00    +0.227 C 
ATOM     17  O   ARG A   6     -15.377  -3.670  -0.045  0.00  0.00    -0.286 OA
ENDBRANCH  15  16
BRANCH  15  18
ATOM     18  CB  ARG A   6     -17.518  -4.213   1.791  0.00  0.00    +0.031 C 
BRANCH  18  19
ATOM     19  CG  ARG A   6     -18.120  -2.871   1.894  0.00  0.00    +0.045 C 
BRANCH  19  20
ATOM     20  CD  ARG A   6     -18.489  -2.502   3.289  0.00  0.00    +0.174 C 
BRANCH  20  21
ATOM     21  NE  ARG A   6     -19.647  -3.217   3.782  0.00  0.00    -0.265 N 
ATOM     22  HE  ARG A   6     -19.491  -4.129   4.258  0.00  0.00    +0.259 HD
ATOM     23  CZ  ARG A   6     -20.880  -2.787   3.666  0.00  0.00    +0.342 C 
ATOM     24  NH2 ARG A   6     -21.863  -3.504   4.099  0.00  0.00    -0.292 N 
ATOM     25 HH21 ARG A   6     -21.678  -4.427   4.542  0.00  0.00    +0.255 HD
ATOM     26 HH22 ARG A   6     -22.839  -3.159   4.005  0.00  0.00    +0.255 HD
ATOM     27  NH1 ARG A   6     -21.121  -1.664   3.079  0.00  0.00    -0.292 N 
ATOM     28 HH11 ARG A   6     -22.100  -1.324   2.988  0.00  0.00    +0.255 HD
ATOM     29 HH12 ARG A   6     -20.337  -1.098   2.697  0.00  0.00    +0.255 HD
ENDBRANCH  20  21
ENDBRANCH  19  20
ENDBRANCH  18  19
ENDBRANCH  15  18
ENDBRANCH  12  15
ENDBRANCH  10  11
BRANCH  10  30
ATOM     30  CB  TYR A   5     -16.513  -8.908  -1.183  0.00  0.00    +0.055 C 
BRANCH  30  31
ATOM     31  CG  TYR A   5     -16.152  -7.833  -2.142  0.00  0.00    -0.020 A 
ATOM     32  CD2 TYR A   5     -14.817  -7.338  -2.244  0.00  0.00    -0.001 A 
ATOM     33  CE2 TYR A   5     -14.497  -6.333  -3.158  0.00  0.00    +0.036 A 
ATOM     34  CZ  TYR A   5     -15.512  -5.801  -3.955  0.00  0.00    +0.134 A 
ATOM     35  CE1 TYR A   5     -16.805  -6.258  -3.820  0.00  0.00    +0.036 A 
ATOM     36  CD1 TYR A   5     -17.120  -7.255  -2.922  0.00  0.00    -0.001 A 
BRANCH  34  37
ATOM     37  OH  TYR A   5     -15.298  -4.762  -4.848  0.00  0.00    -0.506 OA
ATOM     38  HH  TYR A   5     -14.336  -4.526  -4.854  0.00  0.00    +0.292 HD
ENDBRANCH  34  37
ENDBRANCH  30  31
ENDBRANCH  10  30
ENDBRANCH   8  10
ENDBRANCH   5   6
BRANCH   5  39
ATOM     39  CB  THR A   4     -16.929 -12.799   1.439  0.00  0.00    +0.137 C 
ATOM     40  CG2 THR A   4     -17.380 -14.031   2.244  0.00  0.00    +0.034 C 
BRANCH  39  41
ATOM     41  OG1 THR A   4     -17.813 -12.574   0.307  0.00  0.00    -0.382 OA
ATOM     42  HG1 THR A   4     -17.810 -13.374  -0.277  0.00  0.00    +0.210 HD
ENDBRANCH  39  41
ENDBRANCH   5  39
ENDBRANCH   3   5
BRANCH   1  43
ATOM     43  CA  GLU A   3     -19.993 -10.658   4.407  0.00  0.00    +0.149 C 
BRANCH  43  45
ATOM     44  C   ARG A   2     -20.495 -12.931   5.154  0.00  0.00    +0.241 C 
ATOM     45  N   GLU A   3     -20.269 -11.641   5.422  0.00  0.00    -0.297 N 
ATOM     46  H   GLU A   3     -20.294 -11.332   6.415  0.00  0.00    +0.150 HD
ATOM     47  O   ARG A   2     -20.582 -13.371   4.020  0.00  0.00    -0.273 OA
BRANCH  44  48
ATOM     48  CA  ARG A   2     -20.682 -13.860   6.345  0.00  0.00    +0.149 C 
BRANCH  48  51
ATOM     49  C   PHE A   1     -22.542 -15.417   6.916  0.00  0.00    +0.239 C 
ATOM     50  O   PHE A   1     -22.106 -15.715   7.996  0.00  0.00    -0.274 OA
ATOM     51  N   ARG A   2     -21.876 -14.646   6.047  0.00  0.00    -0.297 N 
ATOM     52  H   ARG A   2     -22.241 -14.603   5.074  0.00  0.00    +0.150 HD
BRANCH  49  53
ATOM     53  CA  PHE A   1     -23.889 -15.955   6.465  0.00  0.00    +0.149 C 
BRANCH  53  54
ATOM     54  N   PHE A   1     -24.376 -16.950   7.373  0.00  0.00    -0.238 NA
ATOM     55  H   PHE A   1     -24.046 -16.967   8.359  0.00  0.00    +0.142 HD
ENDBRANCH  53  54
BRANCH  53  56
ATOM     56  CB  PHE A   1     -24.932 -14.827   6.325  0.00  0.00    +0.053 C 
BRANCH  56  57
ATOM     57  CG  PHE A   1     -24.705 -13.702   7.235  0.00  0.00    -0.020 A 
ATOM     58  CD2 PHE A   1     -24.862 -13.858   8.626  0.00  0.00    -0.004 A 
ATOM     59  CE2 PHE A   1     -24.599 -12.772   9.539  0.00  0.00    -0.000 A 
ATOM     60  CZ  PHE A   1     -24.148 -11.568   9.035  0.00  0.00    -0.000 A 
ATOM     61  CE1 PHE A   1     -23.960 -11.408   7.633  0.00  0.00    -0.000 A 
ATOM     62  CD1 PHE A   1     -24.253 -12.493   6.740  0.00  0.00    -0.004 A 
ENDBRANCH  56  57
ENDBRANCH  53  56
ENDBRANCH  49  53
ENDBRANCH  48  51
BRANCH  48  63
ATOM     63  CB  ARG A   2     -19.436 -14.728   6.505  0.00  0.00    +0.033 C 
BRANCH  63  64
ATOM     64  CG  ARG A   2     -18.223 -13.911   6.996  0.00  0.00    +0.045 C 
BRANCH  64  65
ATOM     65  CD  ARG A   2     -17.006 -14.775   7.386  0.00  0.00    +0.174 C 
BRANCH  65  66
ATOM     66  NE  ARG A   2     -16.447 -15.567   6.287  0.00  0.00    -0.265 N 
ATOM     67  HE  ARG A   2     -16.775 -16.549   6.189  0.00  0.00    +0.259 HD
ATOM     68  CZ  ARG A   2     -15.548 -15.126   5.399  0.00  0.00    +0.342 C 
ATOM     69  NH2 ARG A   2     -15.098 -13.866   5.466  0.00  0.00    -0.292 N 
ATOM     70 HH21 ARG A   2     -15.447 -13.228   6.209  0.00  0.00    +0.255 HD
ATOM     71 HH22 ARG A   2     -14.399 -13.526   4.775  0.00  0.00    +0.255 HD
ATOM     72  NH1 ARG A   2     -15.141 -15.940   4.413  0.00  0.00    -0.292 N 
ATOM     73 HH11 ARG A   2     -15.524 -16.905   4.344  0.00  0.00    +0.255 HD
ATOM     74 HH12 ARG A   2     -14.443 -15.606   3.718  0.00  0.00    +0.255 HD
ENDBRANCH  65  66
ENDBRANCH  64  65
ENDBRANCH  63  64
ENDBRANCH  48  63
ENDBRANCH  44  48
ENDBRANCH  43  45
BRANCH  43  75
ATOM     75  CB  GLU A   3     -20.241  -9.235   4.913  0.00  0.00    +0.041 C 
BRANCH  75  76
ATOM     76  CG  GLU A   3     -19.895  -8.136   3.910  0.00  0.00    +0.116 C 
BRANCH  76  77
ATOM     77  CD  GLU A   3     -20.376  -6.761   4.382  0.00  0.00    +0.365 C 
ATOM     78  OE2 GLU A   3     -19.568  -5.933   4.850  0.00  0.00    -0.246 OA
ATOM     79  OE1 GLU A   3     -21.580  -6.461   4.280  0.00  0.00    -0.246 OA
ENDBRANCH  76  77
ENDBRANCH  75  76
ENDBRANCH  43  75
ENDBRANCH   1  43
TORSDOF 30
REMARK  Name = ../refined-set-2016/3lzz/3lzz_pocket.pdb
REMARK  130 active torsions:
REMARK  status: ('A' for Active; 'I' for Inactive)
REMARK    1  A    between atoms: _1  and  _3
REMARK    2  A    between atoms: _3  and  _4
REMARK    3  A    between atoms: _3  and  _6
REMARK    4  A    between atoms: _6  and  _7
REMARK    5  A    between atoms: _11  and  _12
REMARK    6  A    between atoms: _17  and  _19
REMARK    7  A    between atoms: _19  and  _20
REMARK    8  A    between atoms: _19  and  _22
REMARK    9  A    between atoms: _22  and  _23
REMARK   10  A    between atoms: _29  and  _30
REMARK   11  A    between atoms: _35  and  _37
REMARK   12  A    between atoms: _37  and  _38
REMARK   13  A    between atoms: _41  and  _43
REMARK   14  A    between atoms: _43  and  _44
REMARK   15  A    between atoms: _43  and  _46
REMARK   16  A    between atoms: _46  and  _47
REMARK   17  A    between atoms: _53  and  _55
REMARK   18  A    between atoms: _55  and  _56
REMARK   19  A    between atoms: _55  and  _58
REMARK   20  A    between atoms: _58  and  _59
REMARK   21  A    between atoms: _59  and  _60
REMARK   22  A    between atoms: _60  and  _61
REMARK   23  A    between atoms: _70  and  _72
REMARK   24  A    between atoms: _72  and  _73
REMARK   25  A    between atoms: _72  and  _75
REMARK   26  A    between atoms: _75  and  _76
REMARK   27  A    between atoms: _76  and  _77
REMARK   28  A    between atoms: _80  and  _82
REMARK   29  A    between atoms: _82  and  _83
REMARK   30  A    between atoms: _82  and  _85
REMARK   31  A    between atoms: _85  and  _86
REMARK   32  A    between atoms: _89  and  _91
REMARK   33  A    between atoms: _91  and  _92
REMARK   34  A    between atoms: _91  and  _94
REMARK   35  A    between atoms: _94  and  _95
REMARK   36  A    between atoms: _100  and  _101
REMARK   37  A    between atoms: _103  and  _105
REMARK   38  A    between atoms: _105  and  _106
REMARK   39  A    between atoms: _105  and  _108
REMARK   40  A    between atoms: _108  and  _109
REMARK   41  A    between atoms: _109  and  _110
REMARK   42  A    between atoms: _110  and  _111
REMARK   43  A    between atoms: _120  and  _122
REMARK   44  A    between atoms: _122  and  _123
REMARK   45  A    between atoms: _122  and  _125
REMARK   46  A    between atoms: _125  and  _126
REMARK   47  A    between atoms: _129  and  _131
REMARK   48  A    between atoms: _131  and  _132
REMARK   49  A    between atoms: _131  and  _134
REMARK   50  A    between atoms: _134  and  _135
REMARK   51  A    between atoms: _138  and  _140
REMARK   52  A    between atoms: _140  and  _141
REMARK   53  A    between atoms: _140  and  _143
REMARK   54  A    between atoms: _143  and  _144
REMARK   55  A    between atoms: _144  and  _145
REMARK   56  A    between atoms: _147  and  _149
REMARK   57  A    between atoms: _149  and  _150
REMARK   58  A    between atoms: _149  and  _152
REMARK   59  A    between atoms: _152  and  _153
REMARK   60  A    between atoms: _156  and  _158
REMARK   61  A    between atoms: _158  and  _159
REMARK   62  A    between atoms: _158  and  _161
REMARK   63  A    between atoms: _161  and  _162
REMARK   64  A    between atoms: _167  and  _168
REMARK   65  A    between atoms: _170  and  _172
REMARK   66  A    between atoms: _172  and  _173
REMARK   67  A    between atoms: _172  and  _175
REMARK   68  A    between atoms: _175  and  _176
REMARK   69  A    between atoms: _181  and  _182
REMARK   70  A    between atoms: _184  and  _186
REMARK   71  A    between atoms: _186  and  _187
REMARK   72  A    between atoms: _186  and  _189
REMARK   73  A    between atoms: _189  and  _190
REMARK   74  A    between atoms: _193  and  _195
REMARK   75  A    between atoms: _195  and  _196
REMARK   76  A    between atoms: _195  and  _198
REMARK   77  A    between atoms: _198  and  _199
REMARK   78  A    between atoms: _204  and  _206
REMARK   79  A    between atoms: _206  and  _207
REMARK   80  A    between atoms: _206  and  _209
REMARK   81  A    between atoms: _212  and  _214
REMARK   82  A    between atoms: _214  and  _215
REMARK   83  A    between atoms: _214  and  _217
REMARK   84  A    between atoms: _217  and  _218
REMARK   85  A    between atoms: _218  and  _219
REMARK   86  A    between atoms: _222  and  _224
REMARK   87  A    between atoms: _224  and  _225
REMARK   88  A    between atoms: _224  and  _227
REMARK   89  A    between atoms: _227  and  _228
REMARK   90  A    between atoms: _231  and  _233
REMARK   91  A    between atoms: _233  and  _234
REMARK   92  A    between atoms: _233  and  _236
REMARK   93  A    between atoms: _236  and  _237
REMARK   94  A    between atoms: _243  and  _245
REMARK   95  A    between atoms: _245  and  _246
REMARK   96  A    between atoms: _245  and  _248
REMARK   97  A    between atoms: _248  and  _249
REMARK   98  A    between atoms: _255  and  _257
REMARK   99  A    between atoms: _257  and  _258
REMARK  100  A    between atoms: _257  and  _260
REMARK  101  A    between atoms: _260  and  _261
REMARK  102  A    between atoms: _261  and  _262
REMARK  103  A    between atoms: _267  and  _269
REMARK  104  A    between atoms: _269  and  _270
REMARK  105  A    between atoms: _269  and  _272
REMARK  106  A    between atoms: _275  and  _277
REMARK  107  A    between atoms: _277  and  _278
REMARK  108  A    between atoms: _277  and  _280
REMARK  109  A    between atoms: _280  and  _281
REMARK  110  A    between atoms: _284  and  _286
REMARK  111  A    between atoms: _286  and  _287
REMARK  112  A    between atoms: _286  and  _289
REMARK  113  A    between atoms: _292  and  _294
REMARK  114  A    between atoms: _294  and  _295
REMARK  115  A    between atoms: _297  and  _299
REMARK  116  A    between atoms: _299  and  _300
REMARK  117  A    between atoms: _299  and  _302
REMARK  118  A    between atoms: _302  and  _303
REMARK  119  A    between atoms: _309  and  _311
REMARK  120  A    between atoms: _311  and  _312
REMARK  121  A    between atoms: _311  and  _314
REMARK  122  A    between atoms: _314  and  _315
REMARK  123  A    between atoms: _318  and  _320
REMARK  124  A    between atoms: _320  and  _321
REMARK  125  A    between atoms: _320  and  _323
REMARK  126  A    between atoms: _323  and  _324
REMARK  127  A    between atoms: _330  and  _332
REMARK  128  A    between atoms: _332  and  _333
REMARK  129  A    between atoms: _332  and  _335
REMARK  130  A    between atoms: _335  and  _336
REMARK                            x       y       z     vdW  Elec       q    Type
REMARK                         _______ _______ _______ _____ _____    ______ ____
ROOT
ATOM      1  CA  ILE A   4     -22.050 -12.657   1.444  0.00  0.00    +0.149 C 
ENDROOT
BRANCH   1   2
ATOM      2  C   ILE A   4     -22.078 -14.103   0.941  0.00  0.00    +0.241 C 
ATOM      3  N   TYR A   5     -21.605 -15.073   1.732  0.00  0.00    -0.297 N 
ATOM      4  H   TYR A   5     -20.927 -14.841   2.486  0.00  0.00    +0.150 HD
ATOM      5  O   ILE A   4     -22.533 -14.342  -0.180  0.00  0.00    -0.273 OA
BRANCH   3   6
ATOM      6  CA  TYR A   5     -22.030 -16.435   1.545  0.00  0.00    +0.153 C 
BRANCH   6   7
ATOM      7  C   TYR A   5     -23.318 -16.468   2.285  0.00  0.00    +0.241 C 
ATOM      8  O   TYR A   5     -23.461 -15.718   3.245  0.00  0.00    -0.273 OA
ATOM      9  N   TYR A   6     -24.267 -17.284   1.857  0.00  0.00    -0.298 N 
ATOM     10  H   TYR A   6     -24.108 -17.831   0.987  0.00  0.00    +0.150 HD
BRANCH   9  11
ATOM     11  CA  TYR A   6     -25.513 -17.436   2.560  0.00  0.00    +0.141 C 
BRANCH  11  12
ATOM     12  C   TYR A   6     -25.921 -18.880   2.463  0.00  0.00    +0.227 C 
ATOM     13  O   TYR A   6     -26.032 -19.391   1.351  0.00  0.00    -0.286 OA
ENDBRANCH  11  12
BRANCH  11  14
ATOM     14  CB  TYR A   6     -26.616 -16.503   2.017  0.00  0.00    +0.054 C 
BRANCH  14  15
ATOM     15  CG  TYR A   6     -27.939 -16.746   2.724  0.00  0.00    -0.020 A 
ATOM     16  CD2 TYR A   6     -28.152 -16.276   3.999  0.00  0.00    -0.001 A 
ATOM     17  CE2 TYR A   6     -29.360 -16.483   4.681  0.00  0.00    +0.036 A 
ATOM     18  CZ  TYR A   6     -30.370 -17.208   4.072  0.00  0.00    +0.134 A 
ATOM     19  CE1 TYR A   6     -30.205 -17.697   2.779  0.00  0.00    +0.036 A 
ATOM     20  CD1 TYR A   6     -28.980 -17.455   2.103  0.00  0.00    -0.001 A 
BRANCH  18  21
ATOM     21  OH  TYR A   6     -31.546 -17.412   4.780  0.00  0.00    -0.506 OA
ATOM     22  HH  TYR A   6     -32.302 -17.006   4.286  0.00  0.00    +0.292 HD
ENDBRANCH  18  21
ENDBRANCH  14  15
ENDBRANCH  11  14
ENDBRANCH   9  11
ENDBRANCH   6   7
BRANCH   6  23
ATOM     23  CB  TYR A   5     -21.073 -17.393   2.184  0.00  0.00    +0.055 C 
BRANCH  23  24
ATOM     24  CG  TYR A   5     -19.899 -17.721   1.296  0.00  0.00    -0.020 A 
ATOM     25  CD2 TYR A   5     -18.632 -17.311   1.605  0.00  0.00    -0.001 A 
ATOM     26  CE2 TYR A   5     -17.557 -17.632   0.766  0.00  0.00    +0.036 A 
ATOM     27  CZ  TYR A   5     -17.759 -18.355  -0.393  0.00  0.00    +0.134 A 
ATOM     28  CE1 TYR A   5     -18.998 -18.756  -0.735  0.00  0.00    +0.036 A 
ATOM     29  CD1 TYR A   5     -20.077 -18.444   0.112  0.00  0.00    -0.001 A 
BRANCH  27  30
ATOM     30  OH  TYR A   5     -16.731 -18.649  -1.232  0.00  0.00    -0.506 OA
ATOM     31  HH  TYR A   5     -16.321 -17.808  -1.557  0.00  0.00    +0.292 HD
ENDBRANCH  27  30
ENDBRANCH  23  24
ENDBRANCH   6  23
ENDBRANCH   3   6
ENDBRANCH   1   2
BRANCH   1  34
ATOM     32  C   MET A   3     -21.183 -10.768   0.082  0.00  0.00    +0.241 C 
ATOM     33  O   MET A   3     -20.332 -10.499   0.886  0.00  0.00    -0.273 OA
ATOM     34  N   ILE A   4     -22.071 -11.738   0.285  0.00  0.00    -0.297 N 
ATOM     35  H   ILE A   4     -22.829 -11.858  -0.417  0.00  0.00    +0.150 HD
BRANCH  32  36
ATOM     36  CA  MET A   3     -21.234  -9.993  -1.238  0.00  0.00    +0.149 C 
BRANCH  36  38
ATOM     37  C   THR A   2     -21.581  -7.613  -1.558  0.00  0.00    +0.243 C 
ATOM     38  N   MET A   3     -20.906  -8.621  -0.991  0.00  0.00    -0.297 N 
ATOM     39  H   MET A   3     -20.117  -8.400  -0.350  0.00  0.00    +0.150 HD
ATOM     40  O   THR A   2     -22.507  -7.760  -2.373  0.00  0.00    -0.273 OA
BRANCH  37  41
ATOM     41  CA  THR A   2     -21.144  -6.211  -1.155  0.00  0.00    +0.176 C 
BRANCH  41  43
ATOM     42  C   LEU A   1     -20.725  -4.508  -2.856  0.00  0.00    +0.238 C 
ATOM     43  N   THR A   2     -21.559  -5.381  -2.286  0.00  0.00    -0.295 N 
ATOM     44  H   THR A   2     -22.527  -5.473  -2.655  0.00  0.00    +0.150 HD
ATOM     45  O   LEU A   1     -19.592  -4.260  -2.431  0.00  0.00    -0.274 OA
BRANCH  42  46
ATOM     46  CA  LEU A   1     -21.187  -3.836  -4.122  0.00  0.00    +0.145 C 
BRANCH  46  47
ATOM     47  N   LEU A   1     -20.936  -2.363  -4.113  0.00  0.00    -0.238 NA
ATOM     48  H   LEU A   1     -20.252  -1.962  -3.440  0.00  0.00    +0.142 HD
ENDBRANCH  46  47
BRANCH  46  49
ATOM     49  CB  LEU A   1     -20.442  -4.524  -5.313  0.00  0.00    +0.026 C 
BRANCH  49  50
ATOM     50  CG  LEU A   1     -20.621  -6.053  -5.410  0.00  0.00    +0.002 C 
ATOM     51  CD2 LEU A   1     -22.061  -6.382  -5.678  0.00  0.00    +0.000 C 
ATOM     52  CD1 LEU A   1     -19.647  -6.774  -6.471  0.00  0.00    +0.000 C 
ENDBRANCH  49  50
ENDBRANCH  46  49
ENDBRANCH  42  46
ENDBRANCH  41  43
BRANCH  41  53
ATOM     53  CB  THR A   2     -21.843  -5.870   0.181  0.00  0.00    +0.137 C 
ATOM     54  CG2 THR A   2     -21.563  -4.381   0.637  0.00  0.00    +0.034 C 
BRANCH  53  55
ATOM     55  OG1 THR A   2     -23.243  -6.084   0.015  0.00  0.00    -0.382 OA
ATOM     56  HG1 THR A   2     -23.405  -7.031  -0.224  0.00  0.00    +0.210 HD
ENDBRANCH  53  55
ENDBRANCH  41  53
ENDBRANCH  37  41
ENDBRANCH  36  38
BRANCH  36  57
ATOM     57  CB  MET A   3     -20.223 -10.540  -2.223  0.00  0.00    +0.041 C 
BRANCH  57  58
ATOM     58  CG  MET A   3     -20.261 -12.037  -2.359  0.00  0.00    +0.060 C 
BRANCH  58  59
ATOM     59  SD  MET A   3     -19.245 -12.594  -3.698  0.00  0.00    -0.139 S 
ATOM     60  CE  MET A   3     -17.617 -11.907  -3.271  0.00  0.00    +0.069 C 
ENDBRANCH  58  59
ENDBRANCH  57  58
ENDBRANCH  36  57
ENDBRANCH  32  36
ENDBRANCH   1  34
BRANCH   1  61
ATOM     61  CB  ILE A   4     -23.317 -12.481   2.330  0.00  0.00    +0.027 C 
ATOM     62  CG2 ILE A   4     -23.452 -11.004   2.933  0.00  0.00    +0.002 C 
BRANCH  61  63
ATOM     63  CG1 ILE A   4     -24.598 -12.892   1.580  0.00  0.00    +0.002 C 
ATOM     64  CD1 ILE A   4     -25.839 -12.773   2.531  0.00  0.00    +0.000 C 
ENDBRANCH  61  63
ENDBRANCH   1  61
TORSDOF 27
REMARK  Name = ../refined-set-2016/3lzz/3lzz_pocket.pdb
REMARK  130 active torsions:
REMARK  status: ('A' for Active; 'I' for Inactive)
REMARK    1  A    between atoms: _1  and  _3
REMARK    2  A    between atoms: _3  and  _4
REMARK    3  A    between atoms: _3  and  _6
REMARK    4  A    between atoms: _6  and  _7
REMARK    5  A    between atoms: _11  and  _12
REMARK    6  A    between atoms: _17  and  _19
REMARK    7  A    between atoms: _19  and  _20
REMARK    8  A    between atoms: _19  and  _22
REMARK    9  A    between atoms: _22  and  _23
REMARK   10  A    between atoms: _29  and  _30
REMARK   11  A    between atoms: _35  and  _37
REMARK   12  A    between atoms: _37  and  _38
REMARK   13  A    between atoms: _41  and  _43
REMARK   14  A    between atoms: _43  and  _44
REMARK   15  A    between atoms: _43  and  _46
REMARK   16  A    between atoms: _46  and  _47
REMARK   17  A    between atoms: _53  and  _55
REMARK   18  A    between atoms: _55  and  _56
REMARK   19  A    between atoms: _55  and  _58
REMARK   20  A    between atoms: _58  and  _59
REMARK   21  A    between atoms: _59  and  _60
REMARK   22  A    between atoms: _60  and  _61
REMARK   23  A    between atoms: _70  and  _72
REMARK   24  A    between atoms: _72  and  _73
REMARK   25  A    between atoms: _72  and  _75
REMARK   26  A    between atoms: _75  and  _76
REMARK   27  A    between atoms: _76  and  _77
REMARK   28  A    between atoms: _80  and  _82
REMARK   29  A    between atoms: _82  and  _83
REMARK   30  A    between atoms: _82  and  _85
REMARK   31  A    between atoms: _85  and  _86
REMARK   32  A    between atoms: _89  and  _91
REMARK   33  A    between atoms: _91  and  _92
REMARK   34  A    between atoms: _91  and  _94
REMARK   35  A    between atoms: _94  and  _95
REMARK   36  A    between atoms: _100  and  _101
REMARK   37  A    between atoms: _103  and  _105
REMARK   38  A    between atoms: _105  and  _106
REMARK   39  A    between atoms: _105  and  _108
REMARK   40  A    between atoms: _108  and  _109
REMARK   41  A    between atoms: _109  and  _110
REMARK   42  A    between atoms: _110  and  _111
REMARK   43  A    between atoms: _120  and  _122
REMARK   44  A    between atoms: _122  and  _123
REMARK   45  A    between atoms: _122  and  _125
REMARK   46  A    between atoms: _125  and  _126
REMARK   47  A    between atoms: _129  and  _131
REMARK   48  A    between atoms: _131  and  _132
REMARK   49  A    between atoms: _131  and  _134
REMARK   50  A    between atoms: _134  and  _135
REMARK   51  A    between atoms: _138  and  _140
REMARK   52  A    between atoms: _140  and  _141
REMARK   53  A    between atoms: _140  and  _143
REMARK   54  A    between atoms: _143  and  _144
REMARK   55  A    between atoms: _144  and  _145
REMARK   56  A    between atoms: _147  and  _149
REMARK   57  A    between atoms: _149  and  _150
REMARK   58  A    between atoms: _149  and  _152
REMARK   59  A    between atoms: _152  and  _153
REMARK   60  A    between atoms: _156  and  _158
REMARK   61  A    between atoms: _158  and  _159
REMARK   62  A    between atoms: _158  and  _161
REMARK   63  A    between atoms: _161  and  _162
REMARK   64  A    between atoms: _167  and  _168
REMARK   65  A    between atoms: _170  and  _172
REMARK   66  A    between atoms: _172  and  _173
REMARK   67  A    between atoms: _172  and  _175
REMARK   68  A    between atoms: _175  and  _176
REMARK   69  A    between atoms: _181  and  _182
REMARK   70  A    between atoms: _184  and  _186
REMARK   71  A    between atoms: _186  and  _187
REMARK   72  A    between atoms: _186  and  _189
REMARK   73  A    between atoms: _189  and  _190
REMARK   74  A    between atoms: _193  and  _195
REMARK   75  A    between atoms: _195  and  _196
REMARK   76  A    between atoms: _195  and  _198
REMARK   77  A    between atoms: _198  and  _199
REMARK   78  A    between atoms: _204  and  _206
REMARK   79  A    between atoms: _206  and  _207
REMARK   80  A    between atoms: _206  and  _209
REMARK   81  A    between atoms: _212  and  _214
REMARK   82  A    between atoms: _214  and  _215
REMARK   83  A    between atoms: _214  and  _217
REMARK   84  A    between atoms: _217  and  _218
REMARK   85  A    between atoms: _218  and  _219
REMARK   86  A    between atoms: _222  and  _224
REMARK   87  A    between atoms: _224  and  _225
REMARK   88  A    between atoms: _224  and  _227
REMARK   89  A    between atoms: _227  and  _228
REMARK   90  A    between atoms: _231  and  _233
REMARK   91  A    between atoms: _233  and  _234
REMARK   92  A    between atoms: _233  and  _236
REMARK   93  A    between atoms: _236  and  _237
REMARK   94  A    between atoms: _243  and  _245
REMARK   95  A    between atoms: _245  and  _246
REMARK   96  A    between atoms: _245  and  _248
REMARK   97  A    between atoms: _248  and  _249
REMARK   98  A    between atoms: _255  and  _257
REMARK   99  A    between atoms: _257  and  _258
REMARK  100  A    between atoms: _257  and  _260
REMARK  101  A    between atoms: _260  and  _261
REMARK  102  A    between atoms: _261  and  _262
REMARK  103  A    between atoms: _267  and  _269
REMARK  104  A    between atoms: _269  and  _270
REMARK  105  A    between atoms: _269  and  _272
REMARK  106  A    between atoms: _275  and  _277
REMARK  107  A    between atoms: _277  and  _278
REMARK  108  A    between atoms: _277  and  _280
REMARK  109  A    between atoms: _280  and  _281
REMARK  110  A    between atoms: _284  and  _286
REMARK  111  A    between atoms: _286  and  _287
REMARK  112  A    between atoms: _286  and  _289
REMARK  113  A    between atoms: _292  and  _294
REMARK  114  A    between atoms: _294  and  _295
REMARK  115  A    between atoms: _297  and  _299
REMARK  116  A    between atoms: _299  and  _300
REMARK  117  A    between atoms: _299  and  _302
REMARK  118  A    between atoms: _302  and  _303
REMARK  119  A    between atoms: _309  and  _311
REMARK  120  A    between atoms: _311  and  _312
REMARK  121  A    between atoms: _311  and  _314
REMARK  122  A    between atoms: _314  and  _315
REMARK  123  A    between atoms: _318  and  _320
REMARK  124  A    between atoms: _320  and  _321
REMARK  125  A    between atoms: _320  and  _323
REMARK  126  A    between atoms: _323  and  _324
REMARK  127  A    between atoms: _330  and  _332
REMARK  128  A    between atoms: _332  and  _333
REMARK  129  A    between atoms: _332  and  _335
REMARK  130  A    between atoms: _335  and  _336
REMARK                            x       y       z     vdW  Elec       q    Type
REMARK                         _______ _______ _______ _____ _____    ______ ____
ROOT
ATOM      1  CA  ASP A   1     -35.450 -16.702   5.767  0.00  0.00    +0.144 C 
ENDROOT
BRANCH   1   2
ATOM      2  N   ASP A   1     -35.838 -18.083   5.648  0.00  0.00    -0.239 NA
ATOM      3  H   ASP A   1     -35.421 -18.658   4.888  0.00  0.00    +0.142 HD
ENDBRANCH   1   2
BRANCH   1   4
ATOM      4  C   ASP A   1     -36.754 -15.982   5.627  0.00  0.00    +0.225 C 
ATOM      5  O   ASP A   1     -37.392 -16.133   4.643  0.00  0.00    -0.287 OA
ENDBRANCH   1   4
BRANCH   1   6
ATOM      6  CB  ASP A   1     -34.530 -16.350   4.591  0.00  0.00    +0.139 C 
BRANCH   6   7
ATOM      7  CG  ASP A   1     -33.863 -14.967   4.699  0.00  0.00    +0.367 C 
ATOM      8  OD2 ASP A   1     -34.291 -14.115   5.463  0.00  0.00    -0.246 OA
ATOM      9  OD1 ASP A   1     -32.905 -14.731   3.972  0.00  0.00    -0.246 OA
ENDBRANCH   6   7
ENDBRANCH   1   6
TORSDOF 4
REMARK  Name = ../refined-set-2016/3lzz/3lzz_pocket.pdb
REMARK  130 active torsions:
REMARK  status: ('A' for Active; 'I' for Inactive)
REMARK    1  A    between atoms: _1  and  _3
REMARK    2  A    between atoms: _3  and  _4
REMARK    3  A    between atoms: _3  and  _6
REMARK    4  A    between atoms: _6  and  _7
REMARK    5  A    between atoms: _11  and  _12
REMARK    6  A    between atoms: _17  and  _19
REMARK    7  A    between atoms: _19  and  _20
REMARK    8  A    between atoms: _19  and  _22
REMARK    9  A    between atoms: _22  and  _23
REMARK   10  A    between atoms: _29  and  _30
REMARK   11  A    between atoms: _35  and  _37
REMARK   12  A    between atoms: _37  and  _38
REMARK   13  A    between atoms: _41  and  _43
REMARK   14  A    between atoms: _43  and  _44
REMARK   15  A    between atoms: _43  and  _46
REMARK   16  A    between atoms: _46  and  _47
REMARK   17  A    between atoms: _53  and  _55
REMARK   18  A    between atoms: _55  and  _56
REMARK   19  A    between atoms: _55  and  _58
REMARK   20  A    between atoms: _58  and  _59
REMARK   21  A    between atoms: _59  and  _60
REMARK   22  A    between atoms: _60  and  _61
REMARK   23  A    between atoms: _70  and  _72
REMARK   24  A    between atoms: _72  and  _73
REMARK   25  A    between atoms: _72  and  _75
REMARK   26  A    between atoms: _75  and  _76
REMARK   27  A    between atoms: _76  and  _77
REMARK   28  A    between atoms: _80  and  _82
REMARK   29  A    between atoms: _82  and  _83
REMARK   30  A    between atoms: _82  and  _85
REMARK   31  A    between atoms: _85  and  _86
REMARK   32  A    between atoms: _89  and  _91
REMARK   33  A    between atoms: _91  and  _92
REMARK   34  A    between atoms: _91  and  _94
REMARK   35  A    between atoms: _94  and  _95
REMARK   36  A    between atoms: _100  and  _101
REMARK   37  A    between atoms: _103  and  _105
REMARK   38  A    between atoms: _105  and  _106
REMARK   39  A    between atoms: _105  and  _108
REMARK   40  A    between atoms: _108  and  _109
REMARK   41  A    between atoms: _109  and  _110
REMARK   42  A    between atoms: _110  and  _111
REMARK   43  A    between atoms: _120  and  _122
REMARK   44  A    between atoms: _122  and  _123
REMARK   45  A    between atoms: _122  and  _125
REMARK   46  A    between atoms: _125  and  _126
REMARK   47  A    between atoms: _129  and  _131
REMARK   48  A    between atoms: _131  and  _132
REMARK   49  A    between atoms: _131  and  _134
REMARK   50  A    between atoms: _134  and  _135
REMARK   51  A    between atoms: _138  and  _140
REMARK   52  A    between atoms: _140  and  _141
REMARK   53  A    between atoms: _140  and  _143
REMARK   54  A    between atoms: _143  and  _144
REMARK   55  A    between atoms: _144  and  _145
REMARK   56  A    between atoms: _147  and  _149
REMARK   57  A    between atoms: _149  and  _150
REMARK   58  A    between atoms: _149  and  _152
REMARK   59  A    between atoms: _152  and  _153
REMARK   60  A    between atoms: _156  and  _158
REMARK   61  A    between atoms: _158  and  _159
REMARK   62  A    between atoms: _158  and  _161
REMARK   63  A    between atoms: _161  and  _162
REMARK   64  A    between atoms: _167  and  _168
REMARK   65  A    between atoms: _170  and  _172
REMARK   66  A    between atoms: _172  and  _173
REMARK   67  A    between atoms: _172  and  _175
REMARK   68  A    between atoms: _175  and  _176
REMARK   69  A    between atoms: _181  and  _182
REMARK   70  A    between atoms: _184  and  _186
REMARK   71  A    between atoms: _186  and  _187
REMARK   72  A    between atoms: _186  and  _189
REMARK   73  A    between atoms: _189  and  _190
REMARK   74  A    between atoms: _193  and  _195
REMARK   75  A    between atoms: _195  and  _196
REMARK   76  A    between atoms: _195  and  _198
REMARK   77  A    between atoms: _198  and  _199
REMARK   78  A    between atoms: _204  and  _206
REMARK   79  A    between atoms: _206  and  _207
REMARK   80  A    between atoms: _206  and  _209
REMARK   81  A    between atoms: _212  and  _214
REMARK   82  A    between atoms: _214  and  _215
REMARK   83  A    between atoms: _214  and  _217
REMARK   84  A    between atoms: _217  and  _218
REMARK   85  A    between atoms: _218  and  _219
REMARK   86  A    between atoms: _222  and  _224
REMARK   87  A    between atoms: _224  and  _225
REMARK   88  A    between atoms: _224  and  _227
REMARK   89  A    between atoms: _227  and  _228
REMARK   90  A    between atoms: _231  and  _233
REMARK   91  A    between atoms: _233  and  _234
REMARK   92  A    between atoms: _233  and  _236
REMARK   93  A    between atoms: _236  and  _237
REMARK   94  A    between atoms: _243  and  _245
REMARK   95  A    between atoms: _245  and  _246
REMARK   96  A    between atoms: _245  and  _248
REMARK   97  A    between atoms: _248  and  _249
REMARK   98  A    between atoms: _255  and  _257
REMARK   99  A    between atoms: _257  and  _258
REMARK  100  A    between atoms: _257  and  _260
REMARK  101  A    between atoms: _260  and  _261
REMARK  102  A    between atoms: _261  and  _262
REMARK  103  A    between atoms: _267  and  _269
REMARK  104  A    between atoms: _269  and  _270
REMARK  105  A    between atoms: _269  and  _272
REMARK  106  A    between atoms: _275  and  _277
REMARK  107  A    between atoms: _277  and  _278
REMARK  108  A    between atoms: _277  and  _280
REMARK  109  A    between atoms: _280  and  _281
REMARK  110  A    between atoms: _284  and  _286
REMARK  111  A    between atoms: _286  and  _287
REMARK  112  A    between atoms: _286  and  _289
REMARK  113  A    between atoms: _292  and  _294
REMARK  114  A    between atoms: _294  and  _295
REMARK  115  A    between atoms: _297  and  _299
REMARK  116  A    between atoms: _299  and  _300
REMARK  117  A    between atoms: _299  and  _302
REMARK  118  A    between atoms: _302  and  _303
REMARK  119  A    between atoms: _309  and  _311
REMARK  120  A    between atoms: _311  and  _312
REMARK  121  A    between atoms: _311  and  _314
REMARK  122  A    between atoms: _314  and  _315
REMARK  123  A    between atoms: _318  and  _320
REMARK  124  A    between atoms: _320  and  _321
REMARK  125  A    between atoms: _320  and  _323
REMARK  126  A    between atoms: _323  and  _324
REMARK  127  A    between atoms: _330  and  _332
REMARK  128  A    between atoms: _332  and  _333
REMARK  129  A    between atoms: _332  and  _335
REMARK  130  A    between atoms: _335  and  _336
REMARK                            x       y       z     vdW  Elec       q    Type
REMARK                         _______ _______ _______ _____ _____    ______ ____
ROOT
ATOM      1  CB  HIS A   1     -36.342  -9.040   4.605  0.00  0.00    +0.072 C 
ENDROOT
BRANCH   1   2
ATOM      2  CG  HIS A   1     -35.569 -10.057   3.833  0.00  0.00    +0.082 A 
ATOM      3  ND1 HIS A   1     -35.791 -11.376   3.634  0.00  0.00    -0.227 NA
ATOM      4  CE1 HIS A   1     -34.760 -11.860   2.869  0.00  0.00    +0.199 A 
ATOM      5  NE2 HIS A   1     -33.905 -10.877   2.652  0.00  0.00    -0.221 NA
ATOM      6  CD2 HIS A   1     -34.363  -9.781   3.228  0.00  0.00    +0.115 A 
ENDBRANCH   1   2
BRANCH   1   7
ATOM      7  CA  HIS A   1     -37.739  -8.728   4.019  0.00  0.00    +0.139 C 
BRANCH   7   8
ATOM      8  N   HIS A   1     -38.540  -9.940   3.822  0.00  0.00    -0.239 NA
ATOM      9  H   HIS A   1     -38.576 -10.348   2.866  0.00  0.00    +0.142 HD
ENDBRANCH   7   8
BRANCH   7  10
ATOM     10  C   HIS A   1     -37.564  -8.064   2.674  0.00  0.00    +0.224 C 
ATOM     11  O   HIS A   1     -37.990  -8.624   1.659  0.00  0.00    -0.287 OA
ENDBRANCH   7  10
ENDBRANCH   1   7
TORSDOF 4
REMARK  Name = ../refined-set-2016/3lzz/3lzz_pocket.pdb
REMARK  130 active torsions:
REMARK  status: ('A' for Active; 'I' for Inactive)
REMARK    1  A    between atoms: _1  and  _3
REMARK    2  A    between atoms: _3  and  _4
REMARK    3  A    between atoms: _3  and  _6
REMARK    4  A    between atoms: _6  and  _7
REMARK    5  A    between atoms: _11  and  _12
REMARK    6  A    between atoms: _17  and  _19
REMARK    7  A    between atoms: _19  and  _20
REMARK    8  A    between atoms: _19  and  _22
REMARK    9  A    between atoms: _22  and  _23
REMARK   10  A    between atoms: _29  and  _30
REMARK   11  A    between atoms: _35  and  _37
REMARK   12  A    between atoms: _37  and  _38
REMARK   13  A    between atoms: _41  and  _43
REMARK   14  A    between atoms: _43  and  _44
REMARK   15  A    between atoms: _43  and  _46
REMARK   16  A    between atoms: _46  and  _47
REMARK   17  A    between atoms: _53  and  _55
REMARK   18  A    between atoms: _55  and  _56
REMARK   19  A    between atoms: _55  and  _58
REMARK   20  A    between atoms: _58  and  _59
REMARK   21  A    between atoms: _59  and  _60
REMARK   22  A    between atoms: _60  and  _61
REMARK   23  A    between atoms: _70  and  _72
REMARK   24  A    between atoms: _72  and  _73
REMARK   25  A    between atoms: _72  and  _75
REMARK   26  A    between atoms: _75  and  _76
REMARK   27  A    between atoms: _76  and  _77
REMARK   28  A    between atoms: _80  and  _82
REMARK   29  A    between atoms: _82  and  _83
REMARK   30  A    between atoms: _82  and  _85
REMARK   31  A    between atoms: _85  and  _86
REMARK   32  A    between atoms: _89  and  _91
REMARK   33  A    between atoms: _91  and  _92
REMARK   34  A    between atoms: _91  and  _94
REMARK   35  A    between atoms: _94  and  _95
REMARK   36  A    between atoms: _100  and  _101
REMARK   37  A    between atoms: _103  and  _105
REMARK   38  A    between atoms: _105  and  _106
REMARK   39  A    between atoms: _105  and  _108
REMARK   40  A    between atoms: _108  and  _109
REMARK   41  A    between atoms: _109  and  _110
REMARK   42  A    between atoms: _110  and  _111
REMARK   43  A    between atoms: _120  and  _122
REMARK   44  A    between atoms: _122  and  _123
REMARK   45  A    between atoms: _122  and  _125
REMARK   46  A    between atoms: _125  and  _126
REMARK   47  A    between atoms: _129  and  _131
REMARK   48  A    between atoms: _131  and  _132
REMARK   49  A    between atoms: _131  and  _134
REMARK   50  A    between atoms: _134  and  _135
REMARK   51  A    between atoms: _138  and  _140
REMARK   52  A    between atoms: _140  and  _141
REMARK   53  A    between atoms: _140  and  _143
REMARK   54  A    between atoms: _143  and  _144
REMARK   55  A    between atoms: _144  and  _145
REMARK   56  A    between atoms: _147  and  _149
REMARK   57  A    between atoms: _149  and  _150
REMARK   58  A    between atoms: _149  and  _152
REMARK   59  A    between atoms: _152  and  _153
REMARK   60  A    between atoms: _156  and  _158
REMARK   61  A    between atoms: _158  and  _159
REMARK   62  A    between atoms: _158  and  _161
REMARK   63  A    between atoms: _161  and  _162
REMARK   64  A    between atoms: _167  and  _168
REMARK   65  A    between atoms: _170  and  _172
REMARK   66  A    between atoms: _172  and  _173
REMARK   67  A    between atoms: _172  and  _175
REMARK   68  A    between atoms: _175  and  _176
REMARK   69  A    between atoms: _181  and  _182
REMARK   70  A    between atoms: _184  and  _186
REMARK   71  A    between atoms: _186  and  _187
REMARK   72  A    between atoms: _186  and  _189
REMARK   73  A    between atoms: _189  and  _190
REMARK   74  A    between atoms: _193  and  _195
REMARK   75  A    between atoms: _195  and  _196
REMARK   76  A    between atoms: _195  and  _198
REMARK   77  A    between atoms: _198  and  _199
REMARK   78  A    between atoms: _204  and  _206
REMARK   79  A    between atoms: _206  and  _207
REMARK   80  A    between atoms: _206  and  _209
REMARK   81  A    between atoms: _212  and  _214
REMARK   82  A    between atoms: _214  and  _215
REMARK   83  A    between atoms: _214  and  _217
REMARK   84  A    between atoms: _217  and  _218
REMARK   85  A    between atoms: _218  and  _219
REMARK   86  A    between atoms: _222  and  _224
REMARK   87  A    between atoms: _224  and  _225
REMARK   88  A    between atoms: _224  and  _227
REMARK   89  A    between atoms: _227  and  _228
REMARK   90  A    between atoms: _231  and  _233
REMARK   91  A    between atoms: _233  and  _234
REMARK   92  A    between atoms: _233  and  _236
REMARK   93  A    between atoms: _236  and  _237
REMARK   94  A    between atoms: _243  and  _245
REMARK   95  A    between atoms: _245  and  _246
REMARK   96  A    between atoms: _245  and  _248
REMARK   97  A    between atoms: _248  and  _249
REMARK   98  A    between atoms: _255  and  _257
REMARK   99  A    between atoms: _257  and  _258
REMARK  100  A    between atoms: _257  and  _260
REMARK  101  A    between atoms: _260  and  _261
REMARK  102  A    between atoms: _261  and  _262
REMARK  103  A    between atoms: _267  and  _269
REMARK  104  A    between atoms: _269  and  _270
REMARK  105  A    between atoms: _269  and  _272
REMARK  106  A    between atoms: _275  and  _277
REMARK  107  A    between atoms: _277  and  _278
REMARK  108  A    between atoms: _277  and  _280
REMARK  109  A    between atoms: _280  and  _281
REMARK  110  A    between atoms: _284  and  _286
REMARK  111  A    between atoms: _286  and  _287
REMARK  112  A    between atoms: _286  and  _289
REMARK  113  A    between atoms: _292  and  _294
REMARK  114  A    between atoms: _294  and  _295
REMARK  115  A    between atoms: _297  and  _299
REMARK  116  A    between atoms: _299  and  _300
REMARK  117  A    between atoms: _299  and  _302
REMARK  118  A    between atoms: _302  and  _303
REMARK  119  A    between atoms: _309  and  _311
REMARK  120  A    between atoms: _311  and  _312
REMARK  121  A    between atoms: _311  and  _314
REMARK  122  A    between atoms: _314  and  _315
REMARK  123  A    between atoms: _318  and  _320
REMARK  124  A    between atoms: _320  and  _321
REMARK  125  A    between atoms: _320  and  _323
REMARK  126  A    between atoms: _323  and  _324
REMARK  127  A    between atoms: _330  and  _332
REMARK  128  A    between atoms: _332  and  _333
REMARK  129  A    between atoms: _332  and  _335
REMARK  130  A    between atoms: _335  and  _336
REMARK                            x       y       z     vdW  Elec       q    Type
REMARK                         _______ _______ _______ _____ _____    ______ ____
ROOT
ATOM      1  CA  VAL A   1     -33.973  -3.667   0.679  0.00  0.00    +0.133 C 
ENDROOT
BRANCH   1   2
ATOM      2  CB  VAL A   1     -32.565  -4.356   0.510  0.00  0.00    +0.023 C 
ATOM      3  CG2 VAL A   1     -32.162  -5.064   1.809  0.00  0.00    +0.002 C 
ATOM      4  CG1 VAL A   1     -32.550  -5.330  -0.730  0.00  0.00    +0.002 C 
ENDBRANCH   1   2
BRANCH   1   5
ATOM      5  N   VAL A   1     -35.045  -4.652   0.671  0.00  0.00    -0.239 NA
ATOM      6  H   VAL A   1     -35.355  -5.003  -0.258  0.00  0.00    +0.142 HD
ENDBRANCH   1   5
BRANCH   1   7
ATOM      7  C   VAL A   1     -34.254  -2.704  -0.483  0.00  0.00    +0.224 C 
ATOM      8  O   VAL A   1     -35.258  -2.840  -1.188  0.00  0.00    -0.287 OA
ENDBRANCH   1   7
TORSDOF 3
REMARK  Name = ../refined-set-2016/3lzz/3lzz_pocket.pdb
REMARK  130 active torsions:
REMARK  status: ('A' for Active; 'I' for Inactive)
REMARK    1  A    between atoms: _1  and  _3
REMARK    2  A    between atoms: _3  and  _4
REMARK    3  A    between atoms: _3  and  _6
REMARK    4  A    between atoms: _6  and  _7
REMARK    5  A    between atoms: _11  and  _12
REMARK    6  A    between atoms: _17  and  _19
REMARK    7  A    between atoms: _19  and  _20
REMARK    8  A    between atoms: _19  and  _22
REMARK    9  A    between atoms: _22  and  _23
REMARK   10  A    between atoms: _29  and  _30
REMARK   11  A    between atoms: _35  and  _37
REMARK   12  A    between atoms: _37  and  _38
REMARK   13  A    between atoms: _41  and  _43
REMARK   14  A    between atoms: _43  and  _44
REMARK   15  A    between atoms: _43  and  _46
REMARK   16  A    between atoms: _46  and  _47
REMARK   17  A    between atoms: _53  and  _55
REMARK   18  A    between atoms: _55  and  _56
REMARK   19  A    between atoms: _55  and  _58
REMARK   20  A    between atoms: _58  and  _59
REMARK   21  A    between atoms: _59  and  _60
REMARK   22  A    between atoms: _60  and  _61
REMARK   23  A    between atoms: _70  and  _72
REMARK   24  A    between atoms: _72  and  _73
REMARK   25  A    between atoms: _72  and  _75
REMARK   26  A    between atoms: _75  and  _76
REMARK   27  A    between atoms: _76  and  _77
REMARK   28  A    between atoms: _80  and  _82
REMARK   29  A    between atoms: _82  and  _83
REMARK   30  A    between atoms: _82  and  _85
REMARK   31  A    between atoms: _85  and  _86
REMARK   32  A    between atoms: _89  and  _91
REMARK   33  A    between atoms: _91  and  _92
REMARK   34  A    between atoms: _91  and  _94
REMARK   35  A    between atoms: _94  and  _95
REMARK   36  A    between atoms: _100  and  _101
REMARK   37  A    between atoms: _103  and  _105
REMARK   38  A    between atoms: _105  and  _106
REMARK   39  A    between atoms: _105  and  _108
REMARK   40  A    between atoms: _108  and  _109
REMARK   41  A    between atoms: _109  and  _110
REMARK   42  A    between atoms: _110  and  _111
REMARK   43  A    between atoms: _120  and  _122
REMARK   44  A    between atoms: _122  and  _123
REMARK   45  A    between atoms: _122  and  _125
REMARK   46  A    between atoms: _125  and  _126
REMARK   47  A    between atoms: _129  and  _131
REMARK   48  A    between atoms: _131  and  _132
REMARK   49  A    between atoms: _131  and  _134
REMARK   50  A    between atoms: _134  and  _135
REMARK   51  A    between atoms: _138  and  _140
REMARK   52  A    between atoms: _140  and  _141
REMARK   53  A    between atoms: _140  and  _143
REMARK   54  A    between atoms: _143  and  _144
REMARK   55  A    between atoms: _144  and  _145
REMARK   56  A    between atoms: _147  and  _149
REMARK   57  A    between atoms: _149  and  _150
REMARK   58  A    between atoms: _149  and  _152
REMARK   59  A    between atoms: _152  and  _153
REMARK   60  A    between atoms: _156  and  _158
REMARK   61  A    between atoms: _158  and  _159
REMARK   62  A    between atoms: _158  and  _161
REMARK   63  A    between atoms: _161  and  _162
REMARK   64  A    between atoms: _167  and  _168
REMARK   65  A    between atoms: _170  and  _172
REMARK   66  A    between atoms: _172  and  _173
REMARK   67  A    between atoms: _172  and  _175
REMARK   68  A    between atoms: _175  and  _176
REMARK   69  A    between atoms: _181  and  _182
REMARK   70  A    between atoms: _184  and  _186
REMARK   71  A    between atoms: _186  and  _187
REMARK   72  A    between atoms: _186  and  _189
REMARK   73  A    between atoms: _189  and  _190
REMARK   74  A    between atoms: _193  and  _195
REMARK   75  A    between atoms: _195  and  _196
REMARK   76  A    between atoms: _195  and  _198
REMARK   77  A    between atoms: _198  and  _199
REMARK   78  A    between atoms: _204  and  _206
REMARK   79  A    between atoms: _206  and  _207
REMARK   80  A    between atoms: _206  and  _209
REMARK   81  A    between atoms: _212  and  _214
REMARK   82  A    between atoms: _214  and  _215
REMARK   83  A    between atoms: _214  and  _217
REMARK   84  A    between atoms: _217  and  _218
REMARK   85  A    between atoms: _218  and  _219
REMARK   86  A    between atoms: _222  and  _224
REMARK   87  A    between atoms: _224  and  _225
REMARK   88  A    between atoms: _224  and  _227
REMARK   89  A    between atoms: _227  and  _228
REMARK   90  A    between atoms: _231  and  _233
REMARK   91  A    between atoms: _233  and  _234
REMARK   92  A    between atoms: _233  and  _236
REMARK   93  A    between atoms: _236  and  _237
REMARK   94  A    between atoms: _243  and  _245
REMARK   95  A    between atoms: _245  and  _246
REMARK   96  A    between atoms: _245  and  _248
REMARK   97  A    between atoms: _248  and  _249
REMARK   98  A    between atoms: _255  and  _257
REMARK   99  A    between atoms: _257  and  _258
REMARK  100  A    between atoms: _257  and  _260
REMARK  101  A    between atoms: _260  and  _261
REMARK  102  A    between atoms: _261  and  _262
REMARK  103  A    between atoms: _267  and  _269
REMARK  104  A    between atoms: _269  and  _270
REMARK  105  A    between atoms: _269  and  _272
REMARK  106  A    between atoms: _275  and  _277
REMARK  107  A    between atoms: _277  and  _278
REMARK  108  A    between atoms: _277  and  _280
REMARK  109  A    between atoms: _280  and  _281
REMARK  110  A    between atoms: _284  and  _286
REMARK  111  A    between atoms: _286  and  _287
REMARK  112  A    between atoms: _286  and  _289
REMARK  113  A    between atoms: _292  and  _294
REMARK  114  A    between atoms: _294  and  _295
REMARK  115  A    between atoms: _297  and  _299
REMARK  116  A    between atoms: _299  and  _300
REMARK  117  A    between atoms: _299  and  _302
REMARK  118  A    between atoms: _302  and  _303
REMARK  119  A    between atoms: _309  and  _311
REMARK  120  A    between atoms: _311  and  _312
REMARK  121  A    between atoms: _311  and  _314
REMARK  122  A    between atoms: _314  and  _315
REMARK  123  A    between atoms: _318  and  _320
REMARK  124  A    between atoms: _320  and  _321
REMARK  125  A    between atoms: _320  and  _323
REMARK  126  A    between atoms: _323  and  _324
REMARK  127  A    between atoms: _330  and  _332
REMARK  128  A    between atoms: _332  and  _333
REMARK  129  A    between atoms: _332  and  _335
REMARK  130  A    between atoms: _335  and  _336
REMARK                            x       y       z     vdW  Elec       q    Type
REMARK                         _______ _______ _______ _____ _____    ______ ____
ROOT
ATOM      1  CA  THR A   2     -28.558 -11.137  -6.801  0.00  0.00    +0.176 C 
ENDROOT
BRANCH   1   3
ATOM      2  C   GLU A   1     -30.100  -9.685  -5.599  0.00  0.00    +0.238 C 
ATOM      3  N   THR A   2     -28.851 -10.090  -5.832  0.00  0.00    -0.295 N 
ATOM      4  H   THR A   2     -28.068  -9.648  -5.310  0.00  0.00    +0.150 HD
ATOM      5  O   GLU A   1     -31.043 -10.228  -6.097  0.00  0.00    -0.274 OA
BRANCH   2   6
ATOM      6  CA  GLU A   1     -30.314  -8.419  -4.775  0.00  0.00    +0.145 C 
BRANCH   6   7
ATOM      7  N   GLU A   1     -31.139  -7.550  -5.599  0.00  0.00    -0.238 NA
ATOM      8  H   GLU A   1     -32.040  -7.888  -5.993  0.00  0.00    +0.142 HD
ENDBRANCH   6   7
BRANCH   6   9
ATOM      9  CB  GLU A   1     -31.014  -8.648  -3.424  0.00  0.00    +0.038 C 
BRANCH   9  10
ATOM     10  CG  GLU A   1     -30.215  -9.568  -2.579  0.00  0.00    +0.116 C 
BRANCH  10  11
ATOM     11  CD  GLU A   1     -30.531  -9.516  -1.100  0.00  0.00    +0.365 C 
ATOM     12  OE2 GLU A   1     -30.576  -8.406  -0.470  0.00  0.00    -0.246 OA
ATOM     13  OE1 GLU A   1     -30.739 -10.660  -0.592  0.00  0.00    -0.246 OA
ENDBRANCH  10  11
ENDBRANCH   9  10
ENDBRANCH   6   9
ENDBRANCH   2   6
ENDBRANCH   1   3
BRANCH   1  14
ATOM     14  C   THR A   2     -28.088 -12.384  -6.071  0.00  0.00    +0.243 C 
ATOM     15  O   THR A   2     -27.069 -12.355  -5.413  0.00  0.00    -0.273 OA
ATOM     16  N   PHE A   3     -28.824 -13.478  -6.214  0.00  0.00    -0.298 N 
ATOM     17  H   PHE A   3     -29.725 -13.409  -6.729  0.00  0.00    +0.150 HD
BRANCH  16  18
ATOM     18  CA  PHE A   3     -28.431 -14.747  -5.690  0.00  0.00    +0.141 C 
BRANCH  18  19
ATOM     19  C   PHE A   3     -27.724 -15.580  -6.760  0.00  0.00    +0.227 C 
ATOM     20  O   PHE A   3     -28.210 -15.698  -7.914  0.00  0.00    -0.286 OA
ENDBRANCH  18  19
BRANCH  18  21
ATOM     21  CB  PHE A   3     -29.675 -15.548  -5.248  0.00  0.00    +0.054 C 
BRANCH  21  22
ATOM     22  CG  PHE A   3     -30.319 -15.065  -3.963  0.00  0.00    -0.020 A 
ATOM     23  CD2 PHE A   3     -30.265 -15.854  -2.801  0.00  0.00    -0.004 A 
ATOM     24  CE2 PHE A   3     -30.895 -15.452  -1.605  0.00  0.00    -0.000 A 
ATOM     25  CZ  PHE A   3     -31.565 -14.252  -1.506  0.00  0.00    -0.000 A 
ATOM     26  CE1 PHE A   3     -31.645 -13.439  -2.674  0.00  0.00    -0.000 A 
ATOM     27  CD1 PHE A   3     -31.004 -13.849  -3.905  0.00  0.00    -0.004 A 
ENDBRANCH  21  22
ENDBRANCH  18  21
ENDBRANCH  16  18
ENDBRANCH   1  14
BRANCH   1  28
ATOM     28  CB  THR A   2     -27.461 -10.682  -7.756  0.00  0.00    +0.137 C 
ATOM     29  CG2 THR A   2     -27.069 -11.751  -8.746  0.00  0.00    +0.034 C 
BRANCH  28  30
ATOM     30  OG1 THR A   2     -27.891  -9.537  -8.491  0.00  0.00    -0.382 OA
ATOM     31  HG1 THR A   2     -28.099  -8.802  -7.862  0.00  0.00    +0.210 HD
ENDBRANCH  28  30
ENDBRANCH   1  28
TORSDOF 13
REMARK  Name = ../refined-set-2016/3lzz/3lzz_pocket.pdb
REMARK  130 active torsions:
REMARK  status: ('A' for Active; 'I' for Inactive)
REMARK    1  A    between atoms: _1  and  _3
REMARK    2  A    between atoms: _3  and  _4
REMARK    3  A    between atoms: _3  and  _6
REMARK    4  A    between atoms: _6  and  _7
REMARK    5  A    between atoms: _11  and  _12
REMARK    6  A    between atoms: _17  and  _19
REMARK    7  A    between atoms: _19  and  _20
REMARK    8  A    between atoms: _19  and  _22
REMARK    9  A    between atoms: _22  and  _23
REMARK   10  A    between atoms: _29  and  _30
REMARK   11  A    between atoms: _35  and  _37
REMARK   12  A    between atoms: _37  and  _38
REMARK   13  A    between atoms: _41  and  _43
REMARK   14  A    between atoms: _43  and  _44
REMARK   15  A    between atoms: _43  and  _46
REMARK   16  A    between atoms: _46  and  _47
REMARK   17  A    between atoms: _53  and  _55
REMARK   18  A    between atoms: _55  and  _56
REMARK   19  A    between atoms: _55  and  _58
REMARK   20  A    between atoms: _58  and  _59
REMARK   21  A    between atoms: _59  and  _60
REMARK   22  A    between atoms: _60  and  _61
REMARK   23  A    between atoms: _70  and  _72
REMARK   24  A    between atoms: _72  and  _73
REMARK   25  A    between atoms: _72  and  _75
REMARK   26  A    between atoms: _75  and  _76
REMARK   27  A    between atoms: _76  and  _77
REMARK   28  A    between atoms: _80  and  _82
REMARK   29  A    between atoms: _82  and  _83
REMARK   30  A    between atoms: _82  and  _85
REMARK   31  A    between atoms: _85  and  _86
REMARK   32  A    between atoms: _89  and  _91
REMARK   33  A    between atoms: _91  and  _92
REMARK   34  A    between atoms: _91  and  _94
REMARK   35  A    between atoms: _94  and  _95
REMARK   36  A    between atoms: _100  and  _101
REMARK   37  A    between atoms: _103  and  _105
REMARK   38  A    between atoms: _105  and  _106
REMARK   39  A    between atoms: _105  and  _108
REMARK   40  A    between atoms: _108  and  _109
REMARK   41  A    between atoms: _109  and  _110
REMARK   42  A    between atoms: _110  and  _111
REMARK   43  A    between atoms: _120  and  _122
REMARK   44  A    between atoms: _122  and  _123
REMARK   45  A    between atoms: _122  and  _125
REMARK   46  A    between atoms: _125  and  _126
REMARK   47  A    between atoms: _129  and  _131
REMARK   48  A    between atoms: _131  and  _132
REMARK   49  A    between atoms: _131  and  _134
REMARK   50  A    between atoms: _134  and  _135
REMARK   51  A    between atoms: _138  and  _140
REMARK   52  A    between atoms: _140  and  _141
REMARK   53  A    between atoms: _140  and  _143
REMARK   54  A    between atoms: _143  and  _144
REMARK   55  A    between atoms: _144  and  _145
REMARK   56  A    between atoms: _147  and  _149
REMARK   57  A    between atoms: _149  and  _150
REMARK   58  A    between atoms: _149  and  _152
REMARK   59  A    between atoms: _152  and  _153
REMARK   60  A    between atoms: _156  and  _158
REMARK   61  A    between atoms: _158  and  _159
REMARK   62  A    between atoms: _158  and  _161
REMARK   63  A    between atoms: _161  and  _162
REMARK   64  A    between atoms: _167  and  _168
REMARK   65  A    between atoms: _170  and  _172
REMARK   66  A    between atoms: _172  and  _173
REMARK   67  A    between atoms: _172  and  _175
REMARK   68  A    between atoms: _175  and  _176
REMARK   69  A    between atoms: _181  and  _182
REMARK   70  A    between atoms: _184  and  _186
REMARK   71  A    between atoms: _186  and  _187
REMARK   72  A    between atoms: _186  and  _189
REMARK   73  A    between atoms: _189  and  _190
REMARK   74  A    between atoms: _193  and  _195
REMARK   75  A    between atoms: _195  and  _196
REMARK   76  A    between atoms: _195  and  _198
REMARK   77  A    between atoms: _198  and  _199
REMARK   78  A    between atoms: _204  and  _206
REMARK   79  A    between atoms: _206  and  _207
REMARK   80  A    between atoms: _206  and  _209
REMARK   81  A    between atoms: _212  and  _214
REMARK   82  A    between atoms: _214  and  _215
REMARK   83  A    between atoms: _214  and  _217
REMARK   84  A    between atoms: _217  and  _218
REMARK   85  A    between atoms: _218  and  _219
REMARK   86  A    between atoms: _222  and  _224
REMARK   87  A    between atoms: _224  and  _225
REMARK   88  A    between atoms: _224  and  _227
REMARK   89  A    between atoms: _227  and  _228
REMARK   90  A    between atoms: _231  and  _233
REMARK   91  A    between atoms: _233  and  _234
REMARK   92  A    between atoms: _233  and  _236
REMARK   93  A    between atoms: _236  and  _237
REMARK   94  A    between atoms: _243  and  _245
REMARK   95  A    between atoms: _245  and  _246
REMARK   96  A    between atoms: _245  and  _248
REMARK   97  A    between atoms: _248  and  _249
REMARK   98  A    between atoms: _255  and  _257
REMARK   99  A    between atoms: _257  and  _258
REMARK  100  A    between atoms: _257  and  _260
REMARK  101  A    between atoms: _260  and  _261
REMARK  102  A    between atoms: _261  and  _262
REMARK  103  A    between atoms: _267  and  _269
REMARK  104  A    between atoms: _269  and  _270
REMARK  105  A    between atoms: _269  and  _272
REMARK  106  A    between atoms: _275  and  _277
REMARK  107  A    between atoms: _277  and  _278
REMARK  108  A    between atoms: _277  and  _280
REMARK  109  A    between atoms: _280  and  _281
REMARK  110  A    between atoms: _284  and  _286
REMARK  111  A    between atoms: _286  and  _287
REMARK  112  A    between atoms: _286  and  _289
REMARK  113  A    between atoms: _292  and  _294
REMARK  114  A    between atoms: _294  and  _295
REMARK  115  A    between atoms: _297  and  _299
REMARK  116  A    between atoms: _299  and  _300
REMARK  117  A    between atoms: _299  and  _302
REMARK  118  A    between atoms: _302  and  _303
REMARK  119  A    between atoms: _309  and  _311
REMARK  120  A    between atoms: _311  and  _312
REMARK  121  A    between atoms: _311  and  _314
REMARK  122  A    between atoms: _314  and  _315
REMARK  123  A    between atoms: _318  and  _320
REMARK  124  A    between atoms: _320  and  _321
REMARK  125  A    between atoms: _320  and  _323
REMARK  126  A    between atoms: _323  and  _324
REMARK  127  A    between atoms: _330  and  _332
REMARK  128  A    between atoms: _332  and  _333
REMARK  129  A    between atoms: _332  and  _335
REMARK  130  A    between atoms: _335  and  _336
REMARK                            x       y       z     vdW  Elec       q    Type
REMARK                         _______ _______ _______ _____ _____    ______ ____
ROOT
ATOM      1  CB  PHE A   1     -37.898 -11.781  -1.572  0.00  0.00    +0.051 C 
ENDROOT
BRANCH   1   2
ATOM      2  CG  PHE A   1     -36.569 -11.211  -1.227  0.00  0.00    -0.020 A 
ATOM      3  CD2 PHE A   1     -35.491 -12.060  -0.959  0.00  0.00    -0.004 A 
ATOM      4  CE2 PHE A   1     -34.232 -11.500  -0.649  0.00  0.00    -0.000 A 
ATOM      5  CZ  PHE A   1     -34.058 -10.067  -0.607  0.00  0.00    -0.000 A 
ATOM      6  CE1 PHE A   1     -35.113  -9.259  -0.894  0.00  0.00    -0.000 A 
ATOM      7  CD1 PHE A   1     -36.371  -9.825  -1.233  0.00  0.00    -0.004 A 
ENDBRANCH   1   2
BRANCH   1   8
ATOM      8  CA  PHE A   1     -38.905 -11.772  -0.415  0.00  0.00    +0.137 C 
BRANCH   8   9
ATOM      9  N   PHE A   1     -39.273 -10.432  -0.039  0.00  0.00    -0.239 NA
ATOM     10  H   PHE A   1     -38.728  -9.919   0.683  0.00  0.00    +0.142 HD
ENDBRANCH   8   9
BRANCH   8  11
ATOM     11  C   PHE A   1     -38.459 -12.639   0.721  0.00  0.00    +0.224 C 
ATOM     12  O   PHE A   1     -38.031 -12.144   1.756  0.00  0.00    -0.287 OA
ENDBRANCH   8  11
ENDBRANCH   1   8
TORSDOF 4
REMARK  Name = ../refined-set-2016/3lzz/3lzz_pocket.pdb
REMARK  130 active torsions:
REMARK  status: ('A' for Active; 'I' for Inactive)
REMARK    1  A    between atoms: _1  and  _3
REMARK    2  A    between atoms: _3  and  _4
REMARK    3  A    between atoms: _3  and  _6
REMARK    4  A    between atoms: _6  and  _7
REMARK    5  A    between atoms: _11  and  _12
REMARK    6  A    between atoms: _17  and  _19
REMARK    7  A    between atoms: _19  and  _20
REMARK    8  A    between atoms: _19  and  _22
REMARK    9  A    between atoms: _22  and  _23
REMARK   10  A    between atoms: _29  and  _30
REMARK   11  A    between atoms: _35  and  _37
REMARK   12  A    between atoms: _37  and  _38
REMARK   13  A    between atoms: _41  and  _43
REMARK   14  A    between atoms: _43  and  _44
REMARK   15  A    between atoms: _43  and  _46
REMARK   16  A    between atoms: _46  and  _47
REMARK   17  A    between atoms: _53  and  _55
REMARK   18  A    between atoms: _55  and  _56
REMARK   19  A    between atoms: _55  and  _58
REMARK   20  A    between atoms: _58  and  _59
REMARK   21  A    between atoms: _59  and  _60
REMARK   22  A    between atoms: _60  and  _61
REMARK   23  A    between atoms: _70  and  _72
REMARK   24  A    between atoms: _72  and  _73
REMARK   25  A    between atoms: _72  and  _75
REMARK   26  A    between atoms: _75  and  _76
REMARK   27  A    between atoms: _76  and  _77
REMARK   28  A    between atoms: _80  and  _82
REMARK   29  A    between atoms: _82  and  _83
REMARK   30  A    between atoms: _82  and  _85
REMARK   31  A    between atoms: _85  and  _86
REMARK   32  A    between atoms: _89  and  _91
REMARK   33  A    between atoms: _91  and  _92
REMARK   34  A    between atoms: _91  and  _94
REMARK   35  A    between atoms: _94  and  _95
REMARK   36  A    between atoms: _100  and  _101
REMARK   37  A    between atoms: _103  and  _105
REMARK   38  A    between atoms: _105  and  _106
REMARK   39  A    between atoms: _105  and  _108
REMARK   40  A    between atoms: _108  and  _109
REMARK   41  A    between atoms: _109  and  _110
REMARK   42  A    between atoms: _110  and  _111
REMARK   43  A    between atoms: _120  and  _122
REMARK   44  A    between atoms: _122  and  _123
REMARK   45  A    between atoms: _122  and  _125
REMARK   46  A    between atoms: _125  and  _126
REMARK   47  A    between atoms: _129  and  _131
REMARK   48  A    between atoms: _131  and  _132
REMARK   49  A    between atoms: _131  and  _134
REMARK   50  A    between atoms: _134  and  _135
REMARK   51  A    between atoms: _138  and  _140
REMARK   52  A    between atoms: _140  and  _141
REMARK   53  A    between atoms: _140  and  _143
REMARK   54  A    between atoms: _143  and  _144
REMARK   55  A    between atoms: _144  and  _145
REMARK   56  A    between atoms: _147  and  _149
REMARK   57  A    between atoms: _149  and  _150
REMARK   58  A    between atoms: _149  and  _152
REMARK   59  A    between atoms: _152  and  _153
REMARK   60  A    between atoms: _156  and  _158
REMARK   61  A    between atoms: _158  and  _159
REMARK   62  A    between atoms: _158  and  _161
REMARK   63  A    between atoms: _161  and  _162
REMARK   64  A    between atoms: _167  and  _168
REMARK   65  A    between atoms: _170  and  _172
REMARK   66  A    between atoms: _172  and  _173
REMARK   67  A    between atoms: _172  and  _175
REMARK   68  A    between atoms: _175  and  _176
REMARK   69  A    between atoms: _181  and  _182
REMARK   70  A    between atoms: _184  and  _186
REMARK   71  A    between atoms: _186  and  _187
REMARK   72  A    between atoms: _186  and  _189
REMARK   73  A    between atoms: _189  and  _190
REMARK   74  A    between atoms: _193  and  _195
REMARK   75  A    between atoms: _195  and  _196
REMARK   76  A    between atoms: _195  and  _198
REMARK   77  A    between atoms: _198  and  _199
REMARK   78  A    between atoms: _204  and  _206
REMARK   79  A    between atoms: _206  and  _207
REMARK   80  A    between atoms: _206  and  _209
REMARK   81  A    between atoms: _212  and  _214
REMARK   82  A    between atoms: _214  and  _215
REMARK   83  A    between atoms: _214  and  _217
REMARK   84  A    between atoms: _217  and  _218
REMARK   85  A    between atoms: _218  and  _219
REMARK   86  A    between atoms: _222  and  _224
REMARK   87  A    between atoms: _224  and  _225
REMARK   88  A    between atoms: _224  and  _227
REMARK   89  A    between atoms: _227  and  _228
REMARK   90  A    between atoms: _231  and  _233
REMARK   91  A    between atoms: _233  and  _234
REMARK   92  A    between atoms: _233  and  _236
REMARK   93  A    between atoms: _236  and  _237
REMARK   94  A    between atoms: _243  and  _245
REMARK   95  A    between atoms: _245  and  _246
REMARK   96  A    between atoms: _245  and  _248
REMARK   97  A    between atoms: _248  and  _249
REMARK   98  A    between atoms: _255  and  _257
REMARK   99  A    between atoms: _257  and  _258
REMARK  100  A    between atoms: _257  and  _260
REMARK  101  A    between atoms: _260  and  _261
REMARK  102  A    between atoms: _261  and  _262
REMARK  103  A    between atoms: _267  and  _269
REMARK  104  A    between atoms: _269  and  _270
REMARK  105  A    between atoms: _269  and  _272
REMARK  106  A    between atoms: _275  and  _277
REMARK  107  A    between atoms: _277  and  _278
REMARK  108  A    between atoms: _277  and  _280
REMARK  109  A    between atoms: _280  and  _281
REMARK  110  A    between atoms: _284  and  _286
REMARK  111  A    between atoms: _286  and  _287
REMARK  112  A    between atoms: _286  and  _289
REMARK  113  A    between atoms: _292  and  _294
REMARK  114  A    between atoms: _294  and  _295
REMARK  115  A    between atoms: _297  and  _299
REMARK  116  A    between atoms: _299  and  _300
REMARK  117  A    between atoms: _299  and  _302
REMARK  118  A    between atoms: _302  and  _303
REMARK  119  A    between atoms: _309  and  _311
REMARK  120  A    between atoms: _311  and  _312
REMARK  121  A    between atoms: _311  and  _314
REMARK  122  A    between atoms: _314  and  _315
REMARK  123  A    between atoms: _318  and  _320
REMARK  124  A    between atoms: _320  and  _321
REMARK  125  A    between atoms: _320  and  _323
REMARK  126  A    between atoms: _323  and  _324
REMARK  127  A    between atoms: _330  and  _332
REMARK  128  A    between atoms: _332  and  _333
REMARK  129  A    between atoms: _332  and  _335
REMARK  130  A    between atoms: _335  and  _336
REMARK                            x       y       z     vdW  Elec       q    Type
REMARK                         _______ _______ _______ _____ _____    ______ ____
ROOT
ATOM      1  CB  GLN A   1     -35.192 -17.818   0.338  0.00  0.00    +0.035 C 
ENDROOT
BRANCH   1   2
ATOM      2  CA  GLN A   1     -36.575 -18.154   0.894  0.00  0.00    +0.134 C 
BRANCH   2   3
ATOM      3  N   GLN A   1     -37.101 -16.992   1.551  0.00  0.00    -0.239 NA
ATOM      4  H   GLN A   1     -36.900 -16.820   2.557  0.00  0.00    +0.142 HD
ENDBRANCH   2   3
BRANCH   2   5
ATOM      5  C   GLN A   1     -36.602 -19.469   1.678  0.00  0.00    +0.224 C 
ATOM      6  O   GLN A   1     -36.312 -19.497   2.819  0.00  0.00    -0.287 OA
ENDBRANCH   2   5
ENDBRANCH   1   2
BRANCH   1   7
ATOM      7  CG  GLN A   1     -34.220 -17.260   1.327  0.00  0.00    +0.087 C 
BRANCH   7   8
ATOM      8  CD  GLN A   1     -33.984 -15.766   1.310  0.00  0.00    +0.219 C 
ATOM      9  NE2 GLN A   1     -32.794 -15.411   1.582  0.00  0.00    -0.329 N 
ATOM     10 HE21 GLN A   1     -32.060 -16.131   1.738  0.00  0.00    +0.145 HD
ATOM     11 HE22 GLN A   1     -32.555 -14.401   1.648  0.00  0.00    +0.145 HD
ATOM     12  OE1 GLN A   1     -34.850 -14.965   1.125  0.00  0.00    -0.275 OA
ENDBRANCH   7   8
ENDBRANCH   1   7
TORSDOF 5
REMARK  Name = ../refined-set-2016/3lzz/3lzz_pocket.pdb
REMARK  130 active torsions:
REMARK  status: ('A' for Active; 'I' for Inactive)
REMARK    1  A    between atoms: _1  and  _3
REMARK    2  A    between atoms: _3  and  _4
REMARK    3  A    between atoms: _3  and  _6
REMARK    4  A    between atoms: _6  and  _7
REMARK    5  A    between atoms: _11  and  _12
REMARK    6  A    between atoms: _17  and  _19
REMARK    7  A    between atoms: _19  and  _20
REMARK    8  A    between atoms: _19  and  _22
REMARK    9  A    between atoms: _22  and  _23
REMARK   10  A    between atoms: _29  and  _30
REMARK   11  A    between atoms: _35  and  _37
REMARK   12  A    between atoms: _37  and  _38
REMARK   13  A    between atoms: _41  and  _43
REMARK   14  A    between atoms: _43  and  _44
REMARK   15  A    between atoms: _43  and  _46
REMARK   16  A    between atoms: _46  and  _47
REMARK   17  A    between atoms: _53  and  _55
REMARK   18  A    between atoms: _55  and  _56
REMARK   19  A    between atoms: _55  and  _58
REMARK   20  A    between atoms: _58  and  _59
REMARK   21  A    between atoms: _59  and  _60
REMARK   22  A    between atoms: _60  and  _61
REMARK   23  A    between atoms: _70  and  _72
REMARK   24  A    between atoms: _72  and  _73
REMARK   25  A    between atoms: _72  and  _75
REMARK   26  A    between atoms: _75  and  _76
REMARK   27  A    between atoms: _76  and  _77
REMARK   28  A    between atoms: _80  and  _82
REMARK   29  A    between atoms: _82  and  _83
REMARK   30  A    between atoms: _82  and  _85
REMARK   31  A    between atoms: _85  and  _86
REMARK   32  A    between atoms: _89  and  _91
REMARK   33  A    between atoms: _91  and  _92
REMARK   34  A    between atoms: _91  and  _94
REMARK   35  A    between atoms: _94  and  _95
REMARK   36  A    between atoms: _100  and  _101
REMARK   37  A    between atoms: _103  and  _105
REMARK   38  A    between atoms: _105  and  _106
REMARK   39  A    between atoms: _105  and  _108
REMARK   40  A    between atoms: _108  and  _109
REMARK   41  A    between atoms: _109  and  _110
REMARK   42  A    between atoms: _110  and  _111
REMARK   43  A    between atoms: _120  and  _122
REMARK   44  A    between atoms: _122  and  _123
REMARK   45  A    between atoms: _122  and  _125
REMARK   46  A    between atoms: _125  and  _126
REMARK   47  A    between atoms: _129  and  _131
REMARK   48  A    between atoms: _131  and  _132
REMARK   49  A    between atoms: _131  and  _134
REMARK   50  A    between atoms: _134  and  _135
REMARK   51  A    between atoms: _138  and  _140
REMARK   52  A    between atoms: _140  and  _141
REMARK   53  A    between atoms: _140  and  _143
REMARK   54  A    between atoms: _143  and  _144
REMARK   55  A    between atoms: _144  and  _145
REMARK   56  A    between atoms: _147  and  _149
REMARK   57  A    between atoms: _149  and  _150
REMARK   58  A    between atoms: _149  and  _152
REMARK   59  A    between atoms: _152  and  _153
REMARK   60  A    between atoms: _156  and  _158
REMARK   61  A    between atoms: _158  and  _159
REMARK   62  A    between atoms: _158  and  _161
REMARK   63  A    between atoms: _161  and  _162
REMARK   64  A    between atoms: _167  and  _168
REMARK   65  A    between atoms: _170  and  _172
REMARK   66  A    between atoms: _172  and  _173
REMARK   67  A    between atoms: _172  and  _175
REMARK   68  A    between atoms: _175  and  _176
REMARK   69  A    between atoms: _181  and  _182
REMARK   70  A    between atoms: _184  and  _186
REMARK   71  A    between atoms: _186  and  _187
REMARK   72  A    between atoms: _186  and  _189
REMARK   73  A    between atoms: _189  and  _190
REMARK   74  A    between atoms: _193  and  _195
REMARK   75  A    between atoms: _195  and  _196
REMARK   76  A    between atoms: _195  and  _198
REMARK   77  A    between atoms: _198  and  _199
REMARK   78  A    between atoms: _204  and  _206
REMARK   79  A    between atoms: _206  and  _207
REMARK   80  A    between atoms: _206  and  _209
REMARK   81  A    between atoms: _212  and  _214
REMARK   82  A    between atoms: _214  and  _215
REMARK   83  A    between atoms: _214  and  _217
REMARK   84  A    between atoms: _217  and  _218
REMARK   85  A    between atoms: _218  and  _219
REMARK   86  A    between atoms: _222  and  _224
REMARK   87  A    between atoms: _224  and  _225
REMARK   88  A    between atoms: _224  and  _227
REMARK   89  A    between atoms: _227  and  _228
REMARK   90  A    between atoms: _231  and  _233
REMARK   91  A    between atoms: _233  and  _234
REMARK   92  A    between atoms: _233  and  _236
REMARK   93  A    between atoms: _236  and  _237
REMARK   94  A    between atoms: _243  and  _245
REMARK   95  A    between atoms: _245  and  _246
REMARK   96  A    between atoms: _245  and  _248
REMARK   97  A    between atoms: _248  and  _249
REMARK   98  A    between atoms: _255  and  _257
REMARK   99  A    between atoms: _257  and  _258
REMARK  100  A    between atoms: _257  and  _260
REMARK  101  A    between atoms: _260  and  _261
REMARK  102  A    between atoms: _261  and  _262
REMARK  103  A    between atoms: _267  and  _269
REMARK  104  A    between atoms: _269  and  _270
REMARK  105  A    between atoms: _269  and  _272
REMARK  106  A    between atoms: _275  and  _277
REMARK  107  A    between atoms: _277  and  _278
REMARK  108  A    between atoms: _277  and  _280
REMARK  109  A    between atoms: _280  and  _281
REMARK  110  A    between atoms: _284  and  _286
REMARK  111  A    between atoms: _286  and  _287
REMARK  112  A    between atoms: _286  and  _289
REMARK  113  A    between atoms: _292  and  _294
REMARK  114  A    between atoms: _294  and  _295
REMARK  115  A    between atoms: _297  and  _299
REMARK  116  A    between atoms: _299  and  _300
REMARK  117  A    between atoms: _299  and  _302
REMARK  118  A    between atoms: _302  and  _303
REMARK  119  A    between atoms: _309  and  _311
REMARK  120  A    between atoms: _311  and  _312
REMARK  121  A    between atoms: _311  and  _314
REMARK  122  A    between atoms: _314  and  _315
REMARK  123  A    between atoms: _318  and  _320
REMARK  124  A    between atoms: _320  and  _321
REMARK  125  A    between atoms: _320  and  _323
REMARK  126  A    between atoms: _323  and  _324
REMARK  127  A    between atoms: _330  and  _332
REMARK  128  A    between atoms: _332  and  _333
REMARK  129  A    between atoms: _332  and  _335
REMARK  130  A    between atoms: _335  and  _336
REMARK                            x       y       z     vdW  Elec       q    Type
REMARK                         _______ _______ _______ _____ _____    ______ ____
ROOT
ATOM      1  CA  LEU A   2     -24.681  -9.703  -3.930  0.00  0.00    +0.149 C 
ENDROOT
BRANCH   1   4
ATOM      2  C   VAL A   1     -25.067 -11.681  -2.655  0.00  0.00    +0.238 C 
ATOM      3  O   VAL A   1     -24.299 -11.273  -1.796  0.00  0.00    -0.274 OA
ATOM      4  N   LEU A   2     -25.348 -10.969  -3.737  0.00  0.00    -0.297 N 
ATOM      5  H   LEU A   2     -26.037 -11.316  -4.435  0.00  0.00    +0.150 HD
BRANCH   2   6
ATOM      6  CA  VAL A   1     -25.641 -13.069  -2.569  0.00  0.00    +0.145 C 
BRANCH   6   7
ATOM      7  CB  VAL A   1     -26.646 -13.155  -1.465  0.00  0.00    +0.025 C 
ATOM      8  CG2 VAL A   1     -27.260 -14.551  -1.425  0.00  0.00    +0.002 C 
ATOM      9  CG1 VAL A   1     -27.732 -12.162  -1.650  0.00  0.00    +0.002 C 
ENDBRANCH   6   7
BRANCH   6  10
ATOM     10  N   VAL A   1     -24.577 -14.029  -2.349  0.00  0.00    -0.238 NA
ATOM     11  H   VAL A   1     -23.893 -13.884  -1.579  0.00  0.00    +0.142 HD
ENDBRANCH   6  10
ENDBRANCH   2   6
ENDBRANCH   1   4
BRANCH   1  12
ATOM     12  C   LEU A   2     -25.737  -8.584  -3.989  0.00  0.00    +0.241 C 
ATOM     13  N   VAL A   3     -25.412  -7.423  -3.464  0.00  0.00    -0.298 N 
ATOM     14  H   VAL A   3     -24.463  -7.316  -3.053  0.00  0.00    +0.150 HD
ATOM     15  O   LEU A   2     -26.870  -8.811  -4.457  0.00  0.00    -0.273 OA
BRANCH  13  16
ATOM     16  CA  VAL A   3     -26.299  -6.296  -3.429  0.00  0.00    +0.137 C 
BRANCH  16  17
ATOM     17  CB  VAL A   3     -26.661  -6.004  -2.013  0.00  0.00    +0.026 C 
ATOM     18  CG2 VAL A   3     -27.326  -7.128  -1.441  0.00  0.00    +0.002 C 
ATOM     19  CG1 VAL A   3     -27.474  -4.824  -1.901  0.00  0.00    +0.002 C 
ENDBRANCH  16  17
BRANCH  16  20
ATOM     20  C   VAL A   3     -25.583  -5.103  -3.990  0.00  0.00    +0.227 C 
ATOM     21  O   VAL A   3     -24.505  -4.844  -3.620  0.00  0.00    -0.286 OA
ENDBRANCH  16  20
ENDBRANCH  13  16
ENDBRANCH   1  12
BRANCH   1  22
ATOM     22  CB  LEU A   2     -23.783  -9.736  -5.145  0.00  0.00    +0.029 C 
BRANCH  22  23
ATOM     23  CG  LEU A   2     -22.687 -10.823  -5.143  0.00  0.00    +0.002 C 
ATOM     24  CD2 LEU A   2     -21.340 -10.321  -5.723  0.00  0.00    +0.000 C 
ATOM     25  CD1 LEU A   2     -23.125 -12.049  -5.891  0.00  0.00    +0.000 C 
ENDBRANCH  22  23
ENDBRANCH   1  22
TORSDOF 10
REMARK  Name = ../refined-set-2016/3lzz/3lzz_pocket.pdb
REMARK  130 active torsions:
REMARK  status: ('A' for Active; 'I' for Inactive)
REMARK    1  A    between atoms: _1  and  _3
REMARK    2  A    between atoms: _3  and  _4
REMARK    3  A    between atoms: _3  and  _6
REMARK    4  A    between atoms: _6  and  _7
REMARK    5  A    between atoms: _11  and  _12
REMARK    6  A    between atoms: _17  and  _19
REMARK    7  A    between atoms: _19  and  _20
REMARK    8  A    between atoms: _19  and  _22
REMARK    9  A    between atoms: _22  and  _23
REMARK   10  A    between atoms: _29  and  _30
REMARK   11  A    between atoms: _35  and  _37
REMARK   12  A    between atoms: _37  and  _38
REMARK   13  A    between atoms: _41  and  _43
REMARK   14  A    between atoms: _43  and  _44
REMARK   15  A    between atoms: _43  and  _46
REMARK   16  A    between atoms: _46  and  _47
REMARK   17  A    between atoms: _53  and  _55
REMARK   18  A    between atoms: _55  and  _56
REMARK   19  A    between atoms: _55  and  _58
REMARK   20  A    between atoms: _58  and  _59
REMARK   21  A    between atoms: _59  and  _60
REMARK   22  A    between atoms: _60  and  _61
REMARK   23  A    between atoms: _70  and  _72
REMARK   24  A    between atoms: _72  and  _73
REMARK   25  A    between atoms: _72  and  _75
REMARK   26  A    between atoms: _75  and  _76
REMARK   27  A    between atoms: _76  and  _77
REMARK   28  A    between atoms: _80  and  _82
REMARK   29  A    between atoms: _82  and  _83
REMARK   30  A    between atoms: _82  and  _85
REMARK   31  A    between atoms: _85  and  _86
REMARK   32  A    between atoms: _89  and  _91
REMARK   33  A    between atoms: _91  and  _92
REMARK   34  A    between atoms: _91  and  _94
REMARK   35  A    between atoms: _94  and  _95
REMARK   36  A    between atoms: _100  and  _101
REMARK   37  A    between atoms: _103  and  _105
REMARK   38  A    between atoms: _105  and  _106
REMARK   39  A    between atoms: _105  and  _108
REMARK   40  A    between atoms: _108  and  _109
REMARK   41  A    between atoms: _109  and  _110
REMARK   42  A    between atoms: _110  and  _111
REMARK   43  A    between atoms: _120  and  _122
REMARK   44  A    between atoms: _122  and  _123
REMARK   45  A    between atoms: _122  and  _125
REMARK   46  A    between atoms: _125  and  _126
REMARK   47  A    between atoms: _129  and  _131
REMARK   48  A    between atoms: _131  and  _132
REMARK   49  A    between atoms: _131  and  _134
REMARK   50  A    between atoms: _134  and  _135
REMARK   51  A    between atoms: _138  and  _140
REMARK   52  A    between atoms: _140  and  _141
REMARK   53  A    between atoms: _140  and  _143
REMARK   54  A    between atoms: _143  and  _144
REMARK   55  A    between atoms: _144  and  _145
REMARK   56  A    between atoms: _147  and  _149
REMARK   57  A    between atoms: _149  and  _150
REMARK   58  A    between atoms: _149  and  _152
REMARK   59  A    between atoms: _152  and  _153
REMARK   60  A    between atoms: _156  and  _158
REMARK   61  A    between atoms: _158  and  _159
REMARK   62  A    between atoms: _158  and  _161
REMARK   63  A    between atoms: _161  and  _162
REMARK   64  A    between atoms: _167  and  _168
REMARK   65  A    between atoms: _170  and  _172
REMARK   66  A    between atoms: _172  and  _173
REMARK   67  A    between atoms: _172  and  _175
REMARK   68  A    between atoms: _175  and  _176
REMARK   69  A    between atoms: _181  and  _182
REMARK   70  A    between atoms: _184  and  _186
REMARK   71  A    between atoms: _186  and  _187
REMARK   72  A    between atoms: _186  and  _189
REMARK   73  A    between atoms: _189  and  _190
REMARK   74  A    between atoms: _193  and  _195
REMARK   75  A    between atoms: _195  and  _196
REMARK   76  A    between atoms: _195  and  _198
REMARK   77  A    between atoms: _198  and  _199
REMARK   78  A    between atoms: _204  and  _206
REMARK   79  A    between atoms: _206  and  _207
REMARK   80  A    between atoms: _206  and  _209
REMARK   81  A    between atoms: _212  and  _214
REMARK   82  A    between atoms: _214  and  _215
REMARK   83  A    between atoms: _214  and  _217
REMARK   84  A    between atoms: _217  and  _218
REMARK   85  A    between atoms: _218  and  _219
REMARK   86  A    between atoms: _222  and  _224
REMARK   87  A    between atoms: _224  and  _225
REMARK   88  A    between atoms: _224  and  _227
REMARK   89  A    between atoms: _227  and  _228
REMARK   90  A    between atoms: _231  and  _233
REMARK   91  A    between atoms: _233  and  _234
REMARK   92  A    between atoms: _233  and  _236
REMARK   93  A    between atoms: _236  and  _237
REMARK   94  A    between atoms: _243  and  _245
REMARK   95  A    between atoms: _245  and  _246
REMARK   96  A    between atoms: _245  and  _248
REMARK   97  A    between atoms: _248  and  _249
REMARK   98  A    between atoms: _255  and  _257
REMARK   99  A    between atoms: _257  and  _258
REMARK  100  A    between atoms: _257  and  _260
REMARK  101  A    between atoms: _260  and  _261
REMARK  102  A    between atoms: _261  and  _262
REMARK  103  A    between atoms: _267  and  _269
REMARK  104  A    between atoms: _269  and  _270
REMARK  105  A    between atoms: _269  and  _272
REMARK  106  A    between atoms: _275  and  _277
REMARK  107  A    between atoms: _277  and  _278
REMARK  108  A    between atoms: _277  and  _280
REMARK  109  A    between atoms: _280  and  _281
REMARK  110  A    between atoms: _284  and  _286
REMARK  111  A    between atoms: _286  and  _287
REMARK  112  A    between atoms: _286  and  _289
REMARK  113  A    between atoms: _292  and  _294
REMARK  114  A    between atoms: _294  and  _295
REMARK  115  A    between atoms: _297  and  _299
REMARK  116  A    between atoms: _299  and  _300
REMARK  117  A    between atoms: _299  and  _302
REMARK  118  A    between atoms: _302  and  _303
REMARK  119  A    between atoms: _309  and  _311
REMARK  120  A    between atoms: _311  and  _312
REMARK  121  A    between atoms: _311  and  _314
REMARK  122  A    between atoms: _314  and  _315
REMARK  123  A    between atoms: _318  and  _320
REMARK  124  A    between atoms: _320  and  _321
REMARK  125  A    between atoms: _320  and  _323
REMARK  126  A    between atoms: _323  and  _324
REMARK  127  A    between atoms: _330  and  _332
REMARK  128  A    between atoms: _332  and  _333
REMARK  129  A    between atoms: _332  and  _335
REMARK  130  A    between atoms: _335  and  _336
REMARK                            x       y       z     vdW  Elec       q    Type
REMARK                         _______ _______ _______ _____ _____    ______ ____
ROOT
ATOM      1  C   PHE A   2     -25.499  -2.624   2.894  0.00  0.00    +0.241 C 
ATOM      2  N   ASP A   3     -26.515  -2.058   3.522  0.00  0.00    -0.297 N 
ATOM      3  H   ASP A   3     -27.476  -2.271   3.188  0.00  0.00    +0.150 HD
ATOM      4  O   PHE A   2     -24.325  -2.382   3.170  0.00  0.00    -0.273 OA
ENDROOT
BRANCH   1   5
ATOM      5  CA  PHE A   2     -25.861  -3.612   1.805  0.00  0.00    +0.153 C 
BRANCH   5   7
ATOM      6  C   GLY A   1     -24.825  -2.393  -0.056  0.00  0.00    +0.240 C 
ATOM      7  N   PHE A   2     -24.960  -3.495   0.654  0.00  0.00    -0.297 N 
ATOM      8  H   PHE A   2     -24.397  -4.327   0.383  0.00  0.00    +0.150 HD
ATOM      9  O   GLY A   1     -25.367  -1.372   0.207  0.00  0.00    -0.274 OA
BRANCH   6  10
ATOM     10  CA  GLY A   1     -24.004  -2.495  -1.295  0.00  0.00    +0.169 C 
BRANCH  10  11
ATOM     11  N   GLY A   1     -24.358  -1.555  -2.325  0.00  0.00    -0.236 NA
ATOM     12  H   GLY A   1     -23.634  -0.872  -2.625  0.00  0.00    +0.142 HD
ENDBRANCH  10  11
ENDBRANCH   6  10
ENDBRANCH   5   7
BRANCH   5  13
ATOM     13  CB  PHE A   2     -25.802  -5.024   2.379  0.00  0.00    +0.055 C 
BRANCH  13  14
ATOM     14  CG  PHE A   2     -26.766  -5.272   3.526  0.00  0.00    -0.020 A 
ATOM     15  CD2 PHE A   2     -26.342  -5.132   4.862  0.00  0.00    -0.004 A 
ATOM     16  CE2 PHE A   2     -27.210  -5.358   5.952  0.00  0.00    -0.000 A 
ATOM     17  CZ  PHE A   2     -28.552  -5.743   5.712  0.00  0.00    -0.000 A 
ATOM     18  CE1 PHE A   2     -29.006  -5.910   4.360  0.00  0.00    -0.000 A 
ATOM     19  CD1 PHE A   2     -28.101  -5.653   3.278  0.00  0.00    -0.004 A 
ENDBRANCH  13  14
ENDBRANCH   5  13
ENDBRANCH   1   5
BRANCH   2  20
ATOM     20  CA  ASP A   3     -26.370  -1.162   4.643  0.00  0.00    +0.160 C 
BRANCH  20  21
ATOM     21  C   ASP A   3     -27.681  -1.281   5.382  0.00  0.00    +0.241 C 
ATOM     22  N   PHE A   4     -27.627  -1.525   6.665  0.00  0.00    -0.298 N 
ATOM     23  H   PHE A   4     -26.689  -1.579   7.111  0.00  0.00    +0.150 HD
ATOM     24  O   ASP A   3     -28.738  -1.151   4.792  0.00  0.00    -0.273 OA
BRANCH  22  25
ATOM     25  CA  PHE A   4     -28.791  -1.725   7.507  0.00  0.00    +0.141 C 
BRANCH  25  26
ATOM     26  C   PHE A   4     -29.846  -0.637   7.479  0.00  0.00    +0.227 C 
ATOM     27  O   PHE A   4     -30.981  -0.892   7.702  0.00  0.00    -0.286 OA
ENDBRANCH  25  26
BRANCH  25  28
ATOM     28  CB  PHE A   4     -28.308  -1.949   8.917  0.00  0.00    +0.054 C 
BRANCH  28  29
ATOM     29  CG  PHE A   4     -29.105  -2.914   9.678  0.00  0.00    -0.020 A 
ATOM     30  CD2 PHE A   4     -29.789  -2.511  10.825  0.00  0.00    -0.004 A 
ATOM     31  CE2 PHE A   4     -30.530  -3.394  11.565  0.00  0.00    -0.000 A 
ATOM     32  CZ  PHE A   4     -30.593  -4.686  11.168  0.00  0.00    -0.000 A 
ATOM     33  CE1 PHE A   4     -29.903  -5.103  10.017  0.00  0.00    -0.000 A 
ATOM     34  CD1 PHE A   4     -29.170  -4.223   9.297  0.00  0.00    -0.004 A 
ENDBRANCH  28  29
ENDBRANCH  25  28
ENDBRANCH  22  25
ENDBRANCH  20  21
BRANCH  20  35
ATOM     35  CB  ASP A   3     -26.151   0.263   4.141  0.00  0.00    +0.143 C 
BRANCH  35  36
ATOM     36  CG  ASP A   3     -25.897   1.268   5.285  0.00  0.00    +0.367 C 
ATOM     37  OD2 ASP A   3     -26.616   1.140   6.288  0.00  0.00    -0.246 OA
ATOM     38  OD1 ASP A   3     -24.991   2.160   5.177  0.00  0.00    -0.246 OA
ENDBRANCH  35  36
ENDBRANCH  20  35
ENDBRANCH   2  20
TORSDOF 14
REMARK  Name = ../refined-set-2016/3lzz/3lzz_pocket.pdb
REMARK  130 active torsions:
REMARK  status: ('A' for Active; 'I' for Inactive)
REMARK    1  A    between atoms: _1  and  _3
REMARK    2  A    between atoms: _3  and  _4
REMARK    3  A    between atoms: _3  and  _6
REMARK    4  A    between atoms: _6  and  _7
REMARK    5  A    between atoms: _11  and  _12
REMARK    6  A    between atoms: _17  and  _19
REMARK    7  A    between atoms: _19  and  _20
REMARK    8  A    between atoms: _19  and  _22
REMARK    9  A    between atoms: _22  and  _23
REMARK   10  A    between atoms: _29  and  _30
REMARK   11  A    between atoms: _35  and  _37
REMARK   12  A    between atoms: _37  and  _38
REMARK   13  A    between atoms: _41  and  _43
REMARK   14  A    between atoms: _43  and  _44
REMARK   15  A    between atoms: _43  and  _46
REMARK   16  A    between atoms: _46  and  _47
REMARK   17  A    between atoms: _53  and  _55
REMARK   18  A    between atoms: _55  and  _56
REMARK   19  A    between atoms: _55  and  _58
REMARK   20  A    between atoms: _58  and  _59
REMARK   21  A    between atoms: _59  and  _60
REMARK   22  A    between atoms: _60  and  _61
REMARK   23  A    between atoms: _70  and  _72
REMARK   24  A    between atoms: _72  and  _73
REMARK   25  A    between atoms: _72  and  _75
REMARK   26  A    between atoms: _75  and  _76
REMARK   27  A    between atoms: _76  and  _77
REMARK   28  A    between atoms: _80  and  _82
REMARK   29  A    between atoms: _82  and  _83
REMARK   30  A    between atoms: _82  and  _85
REMARK   31  A    between atoms: _85  and  _86
REMARK   32  A    between atoms: _89  and  _91
REMARK   33  A    between atoms: _91  and  _92
REMARK   34  A    between atoms: _91  and  _94
REMARK   35  A    between atoms: _94  and  _95
REMARK   36  A    between atoms: _100  and  _101
REMARK   37  A    between atoms: _103  and  _105
REMARK   38  A    between atoms: _105  and  _106
REMARK   39  A    between atoms: _105  and  _108
REMARK   40  A    between atoms: _108  and  _109
REMARK   41  A    between atoms: _109  and  _110
REMARK   42  A    between atoms: _110  and  _111
REMARK   43  A    between atoms: _120  and  _122
REMARK   44  A    between atoms: _122  and  _123
REMARK   45  A    between atoms: _122  and  _125
REMARK   46  A    between atoms: _125  and  _126
REMARK   47  A    between atoms: _129  and  _131
REMARK   48  A    between atoms: _131  and  _132
REMARK   49  A    between atoms: _131  and  _134
REMARK   50  A    between atoms: _134  and  _135
REMARK   51  A    between atoms: _138  and  _140
REMARK   52  A    between atoms: _140  and  _141
REMARK   53  A    between atoms: _140  and  _143
REMARK   54  A    between atoms: _143  and  _144
REMARK   55  A    between atoms: _144  and  _145
REMARK   56  A    between atoms: _147  and  _149
REMARK   57  A    between atoms: _149  and  _150
REMARK   58  A    between atoms: _149  and  _152
REMARK   59  A    between atoms: _152  and  _153
REMARK   60  A    between atoms: _156  and  _158
REMARK   61  A    between atoms: _158  and  _159
REMARK   62  A    between atoms: _158  and  _161
REMARK   63  A    between atoms: _161  and  _162
REMARK   64  A    between atoms: _167  and  _168
REMARK   65  A    between atoms: _170  and  _172
REMARK   66  A    between atoms: _172  and  _173
REMARK   67  A    between atoms: _172  and  _175
REMARK   68  A    between atoms: _175  and  _176
REMARK   69  A    between atoms: _181  and  _182
REMARK   70  A    between atoms: _184  and  _186
REMARK   71  A    between atoms: _186  and  _187
REMARK   72  A    between atoms: _186  and  _189
REMARK   73  A    between atoms: _189  and  _190
REMARK   74  A    between atoms: _193  and  _195
REMARK   75  A    between atoms: _195  and  _196
REMARK   76  A    between atoms: _195  and  _198
REMARK   77  A    between atoms: _198  and  _199
REMARK   78  A    between atoms: _204  and  _206
REMARK   79  A    between atoms: _206  and  _207
REMARK   80  A    between atoms: _206  and  _209
REMARK   81  A    between atoms: _212  and  _214
REMARK   82  A    between atoms: _214  and  _215
REMARK   83  A    between atoms: _214  and  _217
REMARK   84  A    between atoms: _217  and  _218
REMARK   85  A    between atoms: _218  and  _219
REMARK   86  A    between atoms: _222  and  _224
REMARK   87  A    between atoms: _224  and  _225
REMARK   88  A    between atoms: _224  and  _227
REMARK   89  A    between atoms: _227  and  _228
REMARK   90  A    between atoms: _231  and  _233
REMARK   91  A    between atoms: _233  and  _234
REMARK   92  A    between atoms: _233  and  _236
REMARK   93  A    between atoms: _236  and  _237
REMARK   94  A    between atoms: _243  and  _245
REMARK   95  A    between atoms: _245  and  _246
REMARK   96  A    between atoms: _245  and  _248
REMARK   97  A    between atoms: _248  and  _249
REMARK   98  A    between atoms: _255  and  _257
REMARK   99  A    between atoms: _257  and  _258
REMARK  100  A    between atoms: _257  and  _260
REMARK  101  A    between atoms: _260  and  _261
REMARK  102  A    between atoms: _261  and  _262
REMARK  103  A    between atoms: _267  and  _269
REMARK  104  A    between atoms: _269  and  _270
REMARK  105  A    between atoms: _269  and  _272
REMARK  106  A    between atoms: _275  and  _277
REMARK  107  A    between atoms: _277  and  _278
REMARK  108  A    between atoms: _277  and  _280
REMARK  109  A    between atoms: _280  and  _281
REMARK  110  A    between atoms: _284  and  _286
REMARK  111  A    between atoms: _286  and  _287
REMARK  112  A    between atoms: _286  and  _289
REMARK  113  A    between atoms: _292  and  _294
REMARK  114  A    between atoms: _294  and  _295
REMARK  115  A    between atoms: _297  and  _299
REMARK  116  A    between atoms: _299  and  _300
REMARK  117  A    between atoms: _299  and  _302
REMARK  118  A    between atoms: _302  and  _303
REMARK  119  A    between atoms: _309  and  _311
REMARK  120  A    between atoms: _311  and  _312
REMARK  121  A    between atoms: _311  and  _314
REMARK  122  A    between atoms: _314  and  _315
REMARK  123  A    between atoms: _318  and  _320
REMARK  124  A    between atoms: _320  and  _321
REMARK  125  A    between atoms: _320  and  _323
REMARK  126  A    between atoms: _323  and  _324
REMARK  127  A    between atoms: _330  and  _332
REMARK  128  A    between atoms: _332  and  _333
REMARK  129  A    between atoms: _332  and  _335
REMARK  130  A    between atoms: _335  and  _336
REMARK                            x       y       z     vdW  Elec       q    Type
REMARK                         _______ _______ _______ _____ _____    ______ ____
ROOT
ATOM      1  CB  PHE A   1     -32.161  -3.911   6.005  0.00  0.00    +0.051 C 
ENDROOT
BRANCH   1   2
ATOM      2  CG  PHE A   1     -32.688  -5.250   6.472  0.00  0.00    -0.020 A 
ATOM      3  CD2 PHE A   1     -33.131  -5.429   7.783  0.00  0.00    -0.004 A 
ATOM      4  CE2 PHE A   1     -33.597  -6.695   8.220  0.00  0.00    -0.000 A 
ATOM      5  CZ  PHE A   1     -33.622  -7.774   7.334  0.00  0.00    -0.000 A 
ATOM      6  CE1 PHE A   1     -33.175  -7.598   6.044  0.00  0.00    -0.000 A 
ATOM      7  CD1 PHE A   1     -32.684  -6.349   5.631  0.00  0.00    -0.004 A 
ENDBRANCH   1   2
BRANCH   1   8
ATOM      8  CA  PHE A   1     -33.182  -3.033   5.268  0.00  0.00    +0.137 C 
BRANCH   8   9
ATOM      9  N   PHE A   1     -32.577  -1.729   5.058  0.00  0.00    -0.239 NA
ATOM     10  H   PHE A   1     -32.004  -1.309   5.817  0.00  0.00    +0.142 HD
ENDBRANCH   8   9
BRANCH   8  11
ATOM     11  C   PHE A   1     -34.517  -2.943   6.066  0.00  0.00    +0.224 C 
ATOM     12  O   PHE A   1     -34.649  -2.225   7.081  0.00  0.00    -0.287 OA
ENDBRANCH   8  11
ENDBRANCH   1   8
TORSDOF 4
REMARK  Name = ../refined-set-2016/3lzz/3lzz_pocket.pdb
REMARK  130 active torsions:
REMARK  status: ('A' for Active; 'I' for Inactive)
REMARK    1  A    between atoms: _1  and  _3
REMARK    2  A    between atoms: _3  and  _4
REMARK    3  A    between atoms: _3  and  _6
REMARK    4  A    between atoms: _6  and  _7
REMARK    5  A    between atoms: _11  and  _12
REMARK    6  A    between atoms: _17  and  _19
REMARK    7  A    between atoms: _19  and  _20
REMARK    8  A    between atoms: _19  and  _22
REMARK    9  A    between atoms: _22  and  _23
REMARK   10  A    between atoms: _29  and  _30
REMARK   11  A    between atoms: _35  and  _37
REMARK   12  A    between atoms: _37  and  _38
REMARK   13  A    between atoms: _41  and  _43
REMARK   14  A    between atoms: _43  and  _44
REMARK   15  A    between atoms: _43  and  _46
REMARK   16  A    between atoms: _46  and  _47
REMARK   17  A    between atoms: _53  and  _55
REMARK   18  A    between atoms: _55  and  _56
REMARK   19  A    between atoms: _55  and  _58
REMARK   20  A    between atoms: _58  and  _59
REMARK   21  A    between atoms: _59  and  _60
REMARK   22  A    between atoms: _60  and  _61
REMARK   23  A    between atoms: _70  and  _72
REMARK   24  A    between atoms: _72  and  _73
REMARK   25  A    between atoms: _72  and  _75
REMARK   26  A    between atoms: _75  and  _76
REMARK   27  A    between atoms: _76  and  _77
REMARK   28  A    between atoms: _80  and  _82
REMARK   29  A    between atoms: _82  and  _83
REMARK   30  A    between atoms: _82  and  _85
REMARK   31  A    between atoms: _85  and  _86
REMARK   32  A    between atoms: _89  and  _91
REMARK   33  A    between atoms: _91  and  _92
REMARK   34  A    between atoms: _91  and  _94
REMARK   35  A    between atoms: _94  and  _95
REMARK   36  A    between atoms: _100  and  _101
REMARK   37  A    between atoms: _103  and  _105
REMARK   38  A    between atoms: _105  and  _106
REMARK   39  A    between atoms: _105  and  _108
REMARK   40  A    between atoms: _108  and  _109
REMARK   41  A    between atoms: _109  and  _110
REMARK   42  A    between atoms: _110  and  _111
REMARK   43  A    between atoms: _120  and  _122
REMARK   44  A    between atoms: _122  and  _123
REMARK   45  A    between atoms: _122  and  _125
REMARK   46  A    between atoms: _125  and  _126
REMARK   47  A    between atoms: _129  and  _131
REMARK   48  A    between atoms: _131  and  _132
REMARK   49  A    between atoms: _131  and  _134
REMARK   50  A    between atoms: _134  and  _135
REMARK   51  A    between atoms: _138  and  _140
REMARK   52  A    between atoms: _140  and  _141
REMARK   53  A    between atoms: _140  and  _143
REMARK   54  A    between atoms: _143  and  _144
REMARK   55  A    between atoms: _144  and  _145
REMARK   56  A    between atoms: _147  and  _149
REMARK   57  A    between atoms: _149  and  _150
REMARK   58  A    between atoms: _149  and  _152
REMARK   59  A    between atoms: _152  and  _153
REMARK   60  A    between atoms: _156  and  _158
REMARK   61  A    between atoms: _158  and  _159
REMARK   62  A    between atoms: _158  and  _161
REMARK   63  A    between atoms: _161  and  _162
REMARK   64  A    between atoms: _167  and  _168
REMARK   65  A    between atoms: _170  and  _172
REMARK   66  A    between atoms: _172  and  _173
REMARK   67  A    between atoms: _172  and  _175
REMARK   68  A    between atoms: _175  and  _176
REMARK   69  A    between atoms: _181  and  _182
REMARK   70  A    between atoms: _184  and  _186
REMARK   71  A    between atoms: _186  and  _187
REMARK   72  A    between atoms: _186  and  _189
REMARK   73  A    between atoms: _189  and  _190
REMARK   74  A    between atoms: _193  and  _195
REMARK   75  A    between atoms: _195  and  _196
REMARK   76  A    between atoms: _195  and  _198
REMARK   77  A    between atoms: _198  and  _199
REMARK   78  A    between atoms: _204  and  _206
REMARK   79  A    between atoms: _206  and  _207
REMARK   80  A    between atoms: _206  and  _209
REMARK   81  A    between atoms: _212  and  _214
REMARK   82  A    between atoms: _214  and  _215
REMARK   83  A    between atoms: _214  and  _217
REMARK   84  A    between atoms: _217  and  _218
REMARK   85  A    between atoms: _218  and  _219
REMARK   86  A    between atoms: _222  and  _224
REMARK   87  A    between atoms: _224  and  _225
REMARK   88  A    between atoms: _224  and  _227
REMARK   89  A    between atoms: _227  and  _228
REMARK   90  A    between atoms: _231  and  _233
REMARK   91  A    between atoms: _233  and  _234
REMARK   92  A    between atoms: _233  and  _236
REMARK   93  A    between atoms: _236  and  _237
REMARK   94  A    between atoms: _243  and  _245
REMARK   95  A    between atoms: _245  and  _246
REMARK   96  A    between atoms: _245  and  _248
REMARK   97  A    between atoms: _248  and  _249
REMARK   98  A    between atoms: _255  and  _257
REMARK   99  A    between atoms: _257  and  _258
REMARK  100  A    between atoms: _257  and  _260
REMARK  101  A    between atoms: _260  and  _261
REMARK  102  A    between atoms: _261  and  _262
REMARK  103  A    between atoms: _267  and  _269
REMARK  104  A    between atoms: _269  and  _270
REMARK  105  A    between atoms: _269  and  _272
REMARK  106  A    between atoms: _275  and  _277
REMARK  107  A    between atoms: _277  and  _278
REMARK  108  A    between atoms: _277  and  _280
REMARK  109  A    between atoms: _280  and  _281
REMARK  110  A    between atoms: _284  and  _286
REMARK  111  A    between atoms: _286  and  _287
REMARK  112  A    between atoms: _286  and  _289
REMARK  113  A    between atoms: _292  and  _294
REMARK  114  A    between atoms: _294  and  _295
REMARK  115  A    between atoms: _297  and  _299
REMARK  116  A    between atoms: _299  and  _300
REMARK  117  A    between atoms: _299  and  _302
REMARK  118  A    between atoms: _302  and  _303
REMARK  119  A    between atoms: _309  and  _311
REMARK  120  A    between atoms: _311  and  _312
REMARK  121  A    between atoms: _311  and  _314
REMARK  122  A    between atoms: _314  and  _315
REMARK  123  A    between atoms: _318  and  _320
REMARK  124  A    between atoms: _320  and  _321
REMARK  125  A    between atoms: _320  and  _323
REMARK  126  A    between atoms: _323  and  _324
REMARK  127  A    between atoms: _330  and  _332
REMARK  128  A    between atoms: _332  and  _333
REMARK  129  A    between atoms: _332  and  _335
REMARK  130  A    between atoms: _335  and  _336
REMARK                            x       y       z     vdW  Elec       q    Type
REMARK                         _______ _______ _______ _____ _____    ______ ____
ROOT
ATOM      1  O   HOH     1     -19.430  -3.620   7.284  0.00  0.00    +0.000 OA
ENDROOT
TORSDOF 0
REMARK  Name = ../refined-set-2016/3lzz/3lzz_pocket.pdb
REMARK  130 active torsions:
REMARK  status: ('A' for Active; 'I' for Inactive)
REMARK    1  A    between atoms: _1  and  _3
REMARK    2  A    between atoms: _3  and  _4
REMARK    3  A    between atoms: _3  and  _6
REMARK    4  A    between atoms: _6  and  _7
REMARK    5  A    between atoms: _11  and  _12
REMARK    6  A    between atoms: _17  and  _19
REMARK    7  A    between atoms: _19  and  _20
REMARK    8  A    between atoms: _19  and  _22
REMARK    9  A    between atoms: _22  and  _23
REMARK   10  A    between atoms: _29  and  _30
REMARK   11  A    between atoms: _35  and  _37
REMARK   12  A    between atoms: _37  and  _38
REMARK   13  A    between atoms: _41  and  _43
REMARK   14  A    between atoms: _43  and  _44
REMARK   15  A    between atoms: _43  and  _46
REMARK   16  A    between atoms: _46  and  _47
REMARK   17  A    between atoms: _53  and  _55
REMARK   18  A    between atoms: _55  and  _56
REMARK   19  A    between atoms: _55  and  _58
REMARK   20  A    between atoms: _58  and  _59
REMARK   21  A    between atoms: _59  and  _60
REMARK   22  A    between atoms: _60  and  _61
REMARK   23  A    between atoms: _70  and  _72
REMARK   24  A    between atoms: _72  and  _73
REMARK   25  A    between atoms: _72  and  _75
REMARK   26  A    between atoms: _75  and  _76
REMARK   27  A    between atoms: _76  and  _77
REMARK   28  A    between atoms: _80  and  _82
REMARK   29  A    between atoms: _82  and  _83
REMARK   30  A    between atoms: _82  and  _85
REMARK   31  A    between atoms: _85  and  _86
REMARK   32  A    between atoms: _89  and  _91
REMARK   33  A    between atoms: _91  and  _92
REMARK   34  A    between atoms: _91  and  _94
REMARK   35  A    between atoms: _94  and  _95
REMARK   36  A    between atoms: _100  and  _101
REMARK   37  A    between atoms: _103  and  _105
REMARK   38  A    between atoms: _105  and  _106
REMARK   39  A    between atoms: _105  and  _108
REMARK   40  A    between atoms: _108  and  _109
REMARK   41  A    between atoms: _109  and  _110
REMARK   42  A    between atoms: _110  and  _111
REMARK   43  A    between atoms: _120  and  _122
REMARK   44  A    between atoms: _122  and  _123
REMARK   45  A    between atoms: _122  and  _125
REMARK   46  A    between atoms: _125  and  _126
REMARK   47  A    between atoms: _129  and  _131
REMARK   48  A    between atoms: _131  and  _132
REMARK   49  A    between atoms: _131  and  _134
REMARK   50  A    between atoms: _134  and  _135
REMARK   51  A    between atoms: _138  and  _140
REMARK   52  A    between atoms: _140  and  _141
REMARK   53  A    between atoms: _140  and  _143
REMARK   54  A    between atoms: _143  and  _144
REMARK   55  A    between atoms: _144  and  _145
REMARK   56  A    between atoms: _147  and  _149
REMARK   57  A    between atoms: _149  and  _150
REMARK   58  A    between atoms: _149  and  _152
REMARK   59  A    between atoms: _152  and  _153
REMARK   60  A    between atoms: _156  and  _158
REMARK   61  A    between atoms: _158  and  _159
REMARK   62  A    between atoms: _158  and  _161
REMARK   63  A    between atoms: _161  and  _162
REMARK   64  A    between atoms: _167  and  _168
REMARK   65  A    between atoms: _170  and  _172
REMARK   66  A    between atoms: _172  and  _173
REMARK   67  A    between atoms: _172  and  _175
REMARK   68  A    between atoms: _175  and  _176
REMARK   69  A    between atoms: _181  and  _182
REMARK   70  A    between atoms: _184  and  _186
REMARK   71  A    between atoms: _186  and  _187
REMARK   72  A    between atoms: _186  and  _189
REMARK   73  A    between atoms: _189  and  _190
REMARK   74  A    between atoms: _193  and  _195
REMARK   75  A    between atoms: _195  and  _196
REMARK   76  A    between atoms: _195  and  _198
REMARK   77  A    between atoms: _198  and  _199
REMARK   78  A    between atoms: _204  and  _206
REMARK   79  A    between atoms: _206  and  _207
REMARK   80  A    between atoms: _206  and  _209
REMARK   81  A    between atoms: _212  and  _214
REMARK   82  A    between atoms: _214  and  _215
REMARK   83  A    between atoms: _214  and  _217
REMARK   84  A    between atoms: _217  and  _218
REMARK   85  A    between atoms: _218  and  _219
REMARK   86  A    between atoms: _222  and  _224
REMARK   87  A    between atoms: _224  and  _225
REMARK   88  A    between atoms: _224  and  _227
REMARK   89  A    between atoms: _227  and  _228
REMARK   90  A    between atoms: _231  and  _233
REMARK   91  A    between atoms: _233  and  _234
REMARK   92  A    between atoms: _233  and  _236
REMARK   93  A    between atoms: _236  and  _237
REMARK   94  A    between atoms: _243  and  _245
REMARK   95  A    between atoms: _245  and  _246
REMARK   96  A    between atoms: _245  and  _248
REMARK   97  A    between atoms: _248  and  _249
REMARK   98  A    between atoms: _255  and  _257
REMARK   99  A    between atoms: _257  and  _258
REMARK  100  A    between atoms: _257  and  _260
REMARK  101  A    between atoms: _260  and  _261
REMARK  102  A    between atoms: _261  and  _262
REMARK  103  A    between atoms: _267  and  _269
REMARK  104  A    between atoms: _269  and  _270
REMARK  105  A    between atoms: _269  and  _272
REMARK  106  A    between atoms: _275  and  _277
REMARK  107  A    between atoms: _277  and  _278
REMARK  108  A    between atoms: _277  and  _280
REMARK  109  A    between atoms: _280  and  _281
REMARK  110  A    between atoms: _284  and  _286
REMARK  111  A    between atoms: _286  and  _287
REMARK  112  A    between atoms: _286  and  _289
REMARK  113  A    between atoms: _292  and  _294
REMARK  114  A    between atoms: _294  and  _295
REMARK  115  A    between atoms: _297  and  _299
REMARK  116  A    between atoms: _299  and  _300
REMARK  117  A    between atoms: _299  and  _302
REMARK  118  A    between atoms: _302  and  _303
REMARK  119  A    between atoms: _309  and  _311
REMARK  120  A    between atoms: _311  and  _312
REMARK  121  A    between atoms: _311  and  _314
REMARK  122  A    between atoms: _314  and  _315
REMARK  123  A    between atoms: _318  and  _320
REMARK  124  A    between atoms: _320  and  _321
REMARK  125  A    between atoms: _320  and  _323
REMARK  126  A    between atoms: _323  and  _324
REMARK  127  A    between atoms: _330  and  _332
REMARK  128  A    between atoms: _332  and  _333
REMARK  129  A    between atoms: _332  and  _335
REMARK  130  A    between atoms: _335  and  _336
REMARK                            x       y       z     vdW  Elec       q    Type
REMARK                         _______ _______ _______ _____ _____    ______ ____
ROOT
ATOM      1  O   HOH     1     -22.935   0.171   1.238  0.00  0.00    +0.000 OA
ENDROOT
TORSDOF 0
REMARK  Name = ../refined-set-2016/3lzz/3lzz_pocket.pdb
REMARK  130 active torsions:
REMARK  status: ('A' for Active; 'I' for Inactive)
REMARK    1  A    between atoms: _1  and  _3
REMARK    2  A    between atoms: _3  and  _4
REMARK    3  A    between atoms: _3  and  _6
REMARK    4  A    between atoms: _6  and  _7
REMARK    5  A    between atoms: _11  and  _12
REMARK    6  A    between atoms: _17  and  _19
REMARK    7  A    between atoms: _19  and  _20
REMARK    8  A    between atoms: _19  and  _22
REMARK    9  A    between atoms: _22  and  _23
REMARK   10  A    between atoms: _29  and  _30
REMARK   11  A    between atoms: _35  and  _37
REMARK   12  A    between atoms: _37  and  _38
REMARK   13  A    between atoms: _41  and  _43
REMARK   14  A    between atoms: _43  and  _44
REMARK   15  A    between atoms: _43  and  _46
REMARK   16  A    between atoms: _46  and  _47
REMARK   17  A    between atoms: _53  and  _55
REMARK   18  A    between atoms: _55  and  _56
REMARK   19  A    between atoms: _55  and  _58
REMARK   20  A    between atoms: _58  and  _59
REMARK   21  A    between atoms: _59  and  _60
REMARK   22  A    between atoms: _60  and  _61
REMARK   23  A    between atoms: _70  and  _72
REMARK   24  A    between atoms: _72  and  _73
REMARK   25  A    between atoms: _72  and  _75
REMARK   26  A    between atoms: _75  and  _76
REMARK   27  A    between atoms: _76  and  _77
REMARK   28  A    between atoms: _80  and  _82
REMARK   29  A    between atoms: _82  and  _83
REMARK   30  A    between atoms: _82  and  _85
REMARK   31  A    between atoms: _85  and  _86
REMARK   32  A    between atoms: _89  and  _91
REMARK   33  A    between atoms: _91  and  _92
REMARK   34  A    between atoms: _91  and  _94
REMARK   35  A    between atoms: _94  and  _95
REMARK   36  A    between atoms: _100  and  _101
REMARK   37  A    between atoms: _103  and  _105
REMARK   38  A    between atoms: _105  and  _106
REMARK   39  A    between atoms: _105  and  _108
REMARK   40  A    between atoms: _108  and  _109
REMARK   41  A    between atoms: _109  and  _110
REMARK   42  A    between atoms: _110  and  _111
REMARK   43  A    between atoms: _120  and  _122
REMARK   44  A    between atoms: _122  and  _123
REMARK   45  A    between atoms: _122  and  _125
REMARK   46  A    between atoms: _125  and  _126
REMARK   47  A    between atoms: _129  and  _131
REMARK   48  A    between atoms: _131  and  _132
REMARK   49  A    between atoms: _131  and  _134
REMARK   50  A    between atoms: _134  and  _135
REMARK   51  A    between atoms: _138  and  _140
REMARK   52  A    between atoms: _140  and  _141
REMARK   53  A    between atoms: _140  and  _143
REMARK   54  A    between atoms: _143  and  _144
REMARK   55  A    between atoms: _144  and  _145
REMARK   56  A    between atoms: _147  and  _149
REMARK   57  A    between atoms: _149  and  _150
REMARK   58  A    between atoms: _149  and  _152
REMARK   59  A    between atoms: _152  and  _153
REMARK   60  A    between atoms: _156  and  _158
REMARK   61  A    between atoms: _158  and  _159
REMARK   62  A    between atoms: _158  and  _161
REMARK   63  A    between atoms: _161  and  _162
REMARK   64  A    between atoms: _167  and  _168
REMARK   65  A    between atoms: _170  and  _172
REMARK   66  A    between atoms: _172  and  _173
REMARK   67  A    between atoms: _172  and  _175
REMARK   68  A    between atoms: _175  and  _176
REMARK   69  A    between atoms: _181  and  _182
REMARK   70  A    between atoms: _184  and  _186
REMARK   71  A    between atoms: _186  and  _187
REMARK   72  A    between atoms: _186  and  _189
REMARK   73  A    between atoms: _189  and  _190
REMARK   74  A    between atoms: _193  and  _195
REMARK   75  A    between atoms: _195  and  _196
REMARK   76  A    between atoms: _195  and  _198
REMARK   77  A    between atoms: _198  and  _199
REMARK   78  A    between atoms: _204  and  _206
REMARK   79  A    between atoms: _206  and  _207
REMARK   80  A    between atoms: _206  and  _209
REMARK   81  A    between atoms: _212  and  _214
REMARK   82  A    between atoms: _214  and  _215
REMARK   83  A    between atoms: _214  and  _217
REMARK   84  A    between atoms: _217  and  _218
REMARK   85  A    between atoms: _218  and  _219
REMARK   86  A    between atoms: _222  and  _224
REMARK   87  A    between atoms: _224  and  _225
REMARK   88  A    between atoms: _224  and  _227
REMARK   89  A    between atoms: _227  and  _228
REMARK   90  A    between atoms: _231  and  _233
REMARK   91  A    between atoms: _233  and  _234
REMARK   92  A    between atoms: _233  and  _236
REMARK   93  A    between atoms: _236  and  _237
REMARK   94  A    between atoms: _243  and  _245
REMARK   95  A    between atoms: _245  and  _246
REMARK   96  A    between atoms: _245  and  _248
REMARK   97  A    between atoms: _248  and  _249
REMARK   98  A    between atoms: _255  and  _257
REMARK   99  A    between atoms: _257  and  _258
REMARK  100  A    between atoms: _257  and  _260
REMARK  101  A    between atoms: _260  and  _261
REMARK  102  A    between atoms: _261  and  _262
REMARK  103  A    between atoms: _267  and  _269
REMARK  104  A    between atoms: _269  and  _270
REMARK  105  A    between atoms: _269  and  _272
REMARK  106  A    between atoms: _275  and  _277
REMARK  107  A    between atoms: _277  and  _278
REMARK  108  A    between atoms: _277  and  _280
REMARK  109  A    between atoms: _280  and  _281
REMARK  110  A    between atoms: _284  and  _286
REMARK  111  A    between atoms: _286  and  _287
REMARK  112  A    between atoms: _286  and  _289
REMARK  113  A    between atoms: _292  and  _294
REMARK  114  A    between atoms: _294  and  _295
REMARK  115  A    between atoms: _297  and  _299
REMARK  116  A    between atoms: _299  and  _300
REMARK  117  A    between atoms: _299  and  _302
REMARK  118  A    between atoms: _302  and  _303
REMARK  119  A    between atoms: _309  and  _311
REMARK  120  A    between atoms: _311  and  _312
REMARK  121  A    between atoms: _311  and  _314
REMARK  122  A    between atoms: _314  and  _315
REMARK  123  A    between atoms: _318  and  _320
REMARK  124  A    between atoms: _320  and  _321
REMARK  125  A    between atoms: _320  and  _323
REMARK  126  A    between atoms: _323  and  _324
REMARK  127  A    between atoms: _330  and  _332
REMARK  128  A    between atoms: _332  and  _333
REMARK  129  A    between atoms: _332  and  _335
REMARK  130  A    between atoms: _335  and  _336
REMARK                            x       y       z     vdW  Elec       q    Type
REMARK                         _______ _______ _______ _____ _____    ______ ____
ROOT
ATOM      1  O   HOH     1     -28.316  -1.323   1.171  0.00  0.00    +0.000 OA
ENDROOT
TORSDOF 0
REMARK  Name = ../refined-set-2016/3lzz/3lzz_pocket.pdb
REMARK  130 active torsions:
REMARK  status: ('A' for Active; 'I' for Inactive)
REMARK    1  A    between atoms: _1  and  _3
REMARK    2  A    between atoms: _3  and  _4
REMARK    3  A    between atoms: _3  and  _6
REMARK    4  A    between atoms: _6  and  _7
REMARK    5  A    between atoms: _11  and  _12
REMARK    6  A    between atoms: _17  and  _19
REMARK    7  A    between atoms: _19  and  _20
REMARK    8  A    between atoms: _19  and  _22
REMARK    9  A    between atoms: _22  and  _23
REMARK   10  A    between atoms: _29  and  _30
REMARK   11  A    between atoms: _35  and  _37
REMARK   12  A    between atoms: _37  and  _38
REMARK   13  A    between atoms: _41  and  _43
REMARK   14  A    between atoms: _43  and  _44
REMARK   15  A    between atoms: _43  and  _46
REMARK   16  A    between atoms: _46  and  _47
REMARK   17  A    between atoms: _53  and  _55
REMARK   18  A    between atoms: _55  and  _56
REMARK   19  A    between atoms: _55  and  _58
REMARK   20  A    between atoms: _58  and  _59
REMARK   21  A    between atoms: _59  and  _60
REMARK   22  A    between atoms: _60  and  _61
REMARK   23  A    between atoms: _70  and  _72
REMARK   24  A    between atoms: _72  and  _73
REMARK   25  A    between atoms: _72  and  _75
REMARK   26  A    between atoms: _75  and  _76
REMARK   27  A    between atoms: _76  and  _77
REMARK   28  A    between atoms: _80  and  _82
REMARK   29  A    between atoms: _82  and  _83
REMARK   30  A    between atoms: _82  and  _85
REMARK   31  A    between atoms: _85  and  _86
REMARK   32  A    between atoms: _89  and  _91
REMARK   33  A    between atoms: _91  and  _92
REMARK   34  A    between atoms: _91  and  _94
REMARK   35  A    between atoms: _94  and  _95
REMARK   36  A    between atoms: _100  and  _101
REMARK   37  A    between atoms: _103  and  _105
REMARK   38  A    between atoms: _105  and  _106
REMARK   39  A    between atoms: _105  and  _108
REMARK   40  A    between atoms: _108  and  _109
REMARK   41  A    between atoms: _109  and  _110
REMARK   42  A    between atoms: _110  and  _111
REMARK   43  A    between atoms: _120  and  _122
REMARK   44  A    between atoms: _122  and  _123
REMARK   45  A    between atoms: _122  and  _125
REMARK   46  A    between atoms: _125  and  _126
REMARK   47  A    between atoms: _129  and  _131
REMARK   48  A    between atoms: _131  and  _132
REMARK   49  A    between atoms: _131  and  _134
REMARK   50  A    between atoms: _134  and  _135
REMARK   51  A    between atoms: _138  and  _140
REMARK   52  A    between atoms: _140  and  _141
REMARK   53  A    between atoms: _140  and  _143
REMARK   54  A    between atoms: _143  and  _144
REMARK   55  A    between atoms: _144  and  _145
REMARK   56  A    between atoms: _147  and  _149
REMARK   57  A    between atoms: _149  and  _150
REMARK   58  A    between atoms: _149  and  _152
REMARK   59  A    between atoms: _152  and  _153
REMARK   60  A    between atoms: _156  and  _158
REMARK   61  A    between atoms: _158  and  _159
REMARK   62  A    between atoms: _158  and  _161
REMARK   63  A    between atoms: _161  and  _162
REMARK   64  A    between atoms: _167  and  _168
REMARK   65  A    between atoms: _170  and  _172
REMARK   66  A    between atoms: _172  and  _173
REMARK   67  A    between atoms: _172  and  _175
REMARK   68  A    between atoms: _175  and  _176
REMARK   69  A    between atoms: _181  and  _182
REMARK   70  A    between atoms: _184  and  _186
REMARK   71  A    between atoms: _186  and  _187
REMARK   72  A    between atoms: _186  and  _189
REMARK   73  A    between atoms: _189  and  _190
REMARK   74  A    between atoms: _193  and  _195
REMARK   75  A    between atoms: _195  and  _196
REMARK   76  A    between atoms: _195  and  _198
REMARK   77  A    between atoms: _198  and  _199
REMARK   78  A    between atoms: _204  and  _206
REMARK   79  A    between atoms: _206  and  _207
REMARK   80  A    between atoms: _206  and  _209
REMARK   81  A    between atoms: _212  and  _214
REMARK   82  A    between atoms: _214  and  _215
REMARK   83  A    between atoms: _214  and  _217
REMARK   84  A    between atoms: _217  and  _218
REMARK   85  A    between atoms: _218  and  _219
REMARK   86  A    between atoms: _222  and  _224
REMARK   87  A    between atoms: _224  and  _225
REMARK   88  A    between atoms: _224  and  _227
REMARK   89  A    between atoms: _227  and  _228
REMARK   90  A    between atoms: _231  and  _233
REMARK   91  A    between atoms: _233  and  _234
REMARK   92  A    between atoms: _233  and  _236
REMARK   93  A    between atoms: _236  and  _237
REMARK   94  A    between atoms: _243  and  _245
REMARK   95  A    between atoms: _245  and  _246
REMARK   96  A    between atoms: _245  and  _248
REMARK   97  A    between atoms: _248  and  _249
REMARK   98  A    between atoms: _255  and  _257
REMARK   99  A    between atoms: _257  and  _258
REMARK  100  A    between atoms: _257  and  _260
REMARK  101  A    between atoms: _260  and  _261
REMARK  102  A    between atoms: _261  and  _262
REMARK  103  A    between atoms: _267  and  _269
REMARK  104  A    between atoms: _269  and  _270
REMARK  105  A    between atoms: _269  and  _272
REMARK  106  A    between atoms: _275  and  _277
REMARK  107  A    between atoms: _277  and  _278
REMARK  108  A    between atoms: _277  and  _280
REMARK  109  A    between atoms: _280  and  _281
REMARK  110  A    between atoms: _284  and  _286
REMARK  111  A    between atoms: _286  and  _287
REMARK  112  A    between atoms: _286  and  _289
REMARK  113  A    between atoms: _292  and  _294
REMARK  114  A    between atoms: _294  and  _295
REMARK  115  A    between atoms: _297  and  _299
REMARK  116  A    between atoms: _299  and  _300
REMARK  117  A    between atoms: _299  and  _302
REMARK  118  A    between atoms: _302  and  _303
REMARK  119  A    between atoms: _309  and  _311
REMARK  120  A    between atoms: _311  and  _312
REMARK  121  A    between atoms: _311  and  _314
REMARK  122  A    between atoms: _314  and  _315
REMARK  123  A    between atoms: _318  and  _320
REMARK  124  A    between atoms: _320  and  _321
REMARK  125  A    between atoms: _320  and  _323
REMARK  126  A    between atoms: _323  and  _324
REMARK  127  A    between atoms: _330  and  _332
REMARK  128  A    between atoms: _332  and  _333
REMARK  129  A    between atoms: _332  and  _335
REMARK  130  A    between atoms: _335  and  _336
REMARK                            x       y       z     vdW  Elec       q    Type
REMARK                         _______ _______ _______ _____ _____    ______ ____
ROOT
ATOM      1  O   HOH     1     -20.173 -10.661   8.303  0.00  0.00    +0.000 OA
ENDROOT
TORSDOF 0
REMARK  Name = ../refined-set-2016/3lzz/3lzz_pocket.pdb
REMARK  130 active torsions:
REMARK  status: ('A' for Active; 'I' for Inactive)
REMARK    1  A    between atoms: _1  and  _3
REMARK    2  A    between atoms: _3  and  _4
REMARK    3  A    between atoms: _3  and  _6
REMARK    4  A    between atoms: _6  and  _7
REMARK    5  A    between atoms: _11  and  _12
REMARK    6  A    between atoms: _17  and  _19
REMARK    7  A    between atoms: _19  and  _20
REMARK    8  A    between atoms: _19  and  _22
REMARK    9  A    between atoms: _22  and  _23
REMARK   10  A    between atoms: _29  and  _30
REMARK   11  A    between atoms: _35  and  _37
REMARK   12  A    between atoms: _37  and  _38
REMARK   13  A    between atoms: _41  and  _43
REMARK   14  A    between atoms: _43  and  _44
REMARK   15  A    between atoms: _43  and  _46
REMARK   16  A    between atoms: _46  and  _47
REMARK   17  A    between atoms: _53  and  _55
REMARK   18  A    between atoms: _55  and  _56
REMARK   19  A    between atoms: _55  and  _58
REMARK   20  A    between atoms: _58  and  _59
REMARK   21  A    between atoms: _59  and  _60
REMARK   22  A    between atoms: _60  and  _61
REMARK   23  A    between atoms: _70  and  _72
REMARK   24  A    between atoms: _72  and  _73
REMARK   25  A    between atoms: _72  and  _75
REMARK   26  A    between atoms: _75  and  _76
REMARK   27  A    between atoms: _76  and  _77
REMARK   28  A    between atoms: _80  and  _82
REMARK   29  A    between atoms: _82  and  _83
REMARK   30  A    between atoms: _82  and  _85
REMARK   31  A    between atoms: _85  and  _86
REMARK   32  A    between atoms: _89  and  _91
REMARK   33  A    between atoms: _91  and  _92
REMARK   34  A    between atoms: _91  and  _94
REMARK   35  A    between atoms: _94  and  _95
REMARK   36  A    between atoms: _100  and  _101
REMARK   37  A    between atoms: _103  and  _105
REMARK   38  A    between atoms: _105  and  _106
REMARK   39  A    between atoms: _105  and  _108
REMARK   40  A    between atoms: _108  and  _109
REMARK   41  A    between atoms: _109  and  _110
REMARK   42  A    between atoms: _110  and  _111
REMARK   43  A    between atoms: _120  and  _122
REMARK   44  A    between atoms: _122  and  _123
REMARK   45  A    between atoms: _122  and  _125
REMARK   46  A    between atoms: _125  and  _126
REMARK   47  A    between atoms: _129  and  _131
REMARK   48  A    between atoms: _131  and  _132
REMARK   49  A    between atoms: _131  and  _134
REMARK   50  A    between atoms: _134  and  _135
REMARK   51  A    between atoms: _138  and  _140
REMARK   52  A    between atoms: _140  and  _141
REMARK   53  A    between atoms: _140  and  _143
REMARK   54  A    between atoms: _143  and  _144
REMARK   55  A    between atoms: _144  and  _145
REMARK   56  A    between atoms: _147  and  _149
REMARK   57  A    between atoms: _149  and  _150
REMARK   58  A    between atoms: _149  and  _152
REMARK   59  A    between atoms: _152  and  _153
REMARK   60  A    between atoms: _156  and  _158
REMARK   61  A    between atoms: _158  and  _159
REMARK   62  A    between atoms: _158  and  _161
REMARK   63  A    between atoms: _161  and  _162
REMARK   64  A    between atoms: _167  and  _168
REMARK   65  A    between atoms: _170  and  _172
REMARK   66  A    between atoms: _172  and  _173
REMARK   67  A    between atoms: _172  and  _175
REMARK   68  A    between atoms: _175  and  _176
REMARK   69  A    between atoms: _181  and  _182
REMARK   70  A    between atoms: _184  and  _186
REMARK   71  A    between atoms: _186  and  _187
REMARK   72  A    between atoms: _186  and  _189
REMARK   73  A    between atoms: _189  and  _190
REMARK   74  A    between atoms: _193  and  _195
REMARK   75  A    between atoms: _195  and  _196
REMARK   76  A    between atoms: _195  and  _198
REMARK   77  A    between atoms: _198  and  _199
REMARK   78  A    between atoms: _204  and  _206
REMARK   79  A    between atoms: _206  and  _207
REMARK   80  A    between atoms: _206  and  _209
REMARK   81  A    between atoms: _212  and  _214
REMARK   82  A    between atoms: _214  and  _215
REMARK   83  A    between atoms: _214  and  _217
REMARK   84  A    between atoms: _217  and  _218
REMARK   85  A    between atoms: _218  and  _219
REMARK   86  A    between atoms: _222  and  _224
REMARK   87  A    between atoms: _224  and  _225
REMARK   88  A    between atoms: _224  and  _227
REMARK   89  A    between atoms: _227  and  _228
REMARK   90  A    between atoms: _231  and  _233
REMARK   91  A    between atoms: _233  and  _234
REMARK   92  A    between atoms: _233  and  _236
REMARK   93  A    between atoms: _236  and  _237
REMARK   94  A    between atoms: _243  and  _245
REMARK   95  A    between atoms: _245  and  _246
REMARK   96  A    between atoms: _245  and  _248
REMARK   97  A    between atoms: _248  and  _249
REMARK   98  A    between atoms: _255  and  _257
REMARK   99  A    between atoms: _257  and  _258
REMARK  100  A    between atoms: _257  and  _260
REMARK  101  A    between atoms: _260  and  _261
REMARK  102  A    between atoms: _261  and  _262
REMARK  103  A    between atoms: _267  and  _269
REMARK  104  A    between atoms: _269  and  _270
REMARK  105  A    between atoms: _269  and  _272
REMARK  106  A    between atoms: _275  and  _277
REMARK  107  A    between atoms: _277  and  _278
REMARK  108  A    between atoms: _277  and  _280
REMARK  109  A    between atoms: _280  and  _281
REMARK  110  A    between atoms: _284  and  _286
REMARK  111  A    between atoms: _286  and  _287
REMARK  112  A    between atoms: _286  and  _289
REMARK  113  A    between atoms: _292  and  _294
REMARK  114  A    between atoms: _294  and  _295
REMARK  115  A    between atoms: _297  and  _299
REMARK  116  A    between atoms: _299  and  _300
REMARK  117  A    between atoms: _299  and  _302
REMARK  118  A    between atoms: _302  and  _303
REMARK  119  A    between atoms: _309  and  _311
REMARK  120  A    between atoms: _311  and  _312
REMARK  121  A    between atoms: _311  and  _314
REMARK  122  A    between atoms: _314  and  _315
REMARK  123  A    between atoms: _318  and  _320
REMARK  124  A    between atoms: _320  and  _321
REMARK  125  A    between atoms: _320  and  _323
REMARK  126  A    between atoms: _323  and  _324
REMARK  127  A    between atoms: _330  and  _332
REMARK  128  A    between atoms: _332  and  _333
REMARK  129  A    between atoms: _332  and  _335
REMARK  130  A    between atoms: _335  and  _336
REMARK                            x       y       z     vdW  Elec       q    Type
REMARK                         _______ _______ _______ _____ _____    ______ ____
ROOT
ATOM      1  O   HOH     1     -24.215  -8.571   0.029  0.00  0.00    +0.000 OA
ENDROOT
TORSDOF 0
REMARK  Name = ../refined-set-2016/3lzz/3lzz_pocket.pdb
REMARK  130 active torsions:
REMARK  status: ('A' for Active; 'I' for Inactive)
REMARK    1  A    between atoms: _1  and  _3
REMARK    2  A    between atoms: _3  and  _4
REMARK    3  A    between atoms: _3  and  _6
REMARK    4  A    between atoms: _6  and  _7
REMARK    5  A    between atoms: _11  and  _12
REMARK    6  A    between atoms: _17  and  _19
REMARK    7  A    between atoms: _19  and  _20
REMARK    8  A    between atoms: _19  and  _22
REMARK    9  A    between atoms: _22  and  _23
REMARK   10  A    between atoms: _29  and  _30
REMARK   11  A    between atoms: _35  and  _37
REMARK   12  A    between atoms: _37  and  _38
REMARK   13  A    between atoms: _41  and  _43
REMARK   14  A    between atoms: _43  and  _44
REMARK   15  A    between atoms: _43  and  _46
REMARK   16  A    between atoms: _46  and  _47
REMARK   17  A    between atoms: _53  and  _55
REMARK   18  A    between atoms: _55  and  _56
REMARK   19  A    between atoms: _55  and  _58
REMARK   20  A    between atoms: _58  and  _59
REMARK   21  A    between atoms: _59  and  _60
REMARK   22  A    between atoms: _60  and  _61
REMARK   23  A    between atoms: _70  and  _72
REMARK   24  A    between atoms: _72  and  _73
REMARK   25  A    between atoms: _72  and  _75
REMARK   26  A    between atoms: _75  and  _76
REMARK   27  A    between atoms: _76  and  _77
REMARK   28  A    between atoms: _80  and  _82
REMARK   29  A    between atoms: _82  and  _83
REMARK   30  A    between atoms: _82  and  _85
REMARK   31  A    between atoms: _85  and  _86
REMARK   32  A    between atoms: _89  and  _91
REMARK   33  A    between atoms: _91  and  _92
REMARK   34  A    between atoms: _91  and  _94
REMARK   35  A    between atoms: _94  and  _95
REMARK   36  A    between atoms: _100  and  _101
REMARK   37  A    between atoms: _103  and  _105
REMARK   38  A    between atoms: _105  and  _106
REMARK   39  A    between atoms: _105  and  _108
REMARK   40  A    between atoms: _108  and  _109
REMARK   41  A    between atoms: _109  and  _110
REMARK   42  A    between atoms: _110  and  _111
REMARK   43  A    between atoms: _120  and  _122
REMARK   44  A    between atoms: _122  and  _123
REMARK   45  A    between atoms: _122  and  _125
REMARK   46  A    between atoms: _125  and  _126
REMARK   47  A    between atoms: _129  and  _131
REMARK   48  A    between atoms: _131  and  _132
REMARK   49  A    between atoms: _131  and  _134
REMARK   50  A    between atoms: _134  and  _135
REMARK   51  A    between atoms: _138  and  _140
REMARK   52  A    between atoms: _140  and  _141
REMARK   53  A    between atoms: _140  and  _143
REMARK   54  A    between atoms: _143  and  _144
REMARK   55  A    between atoms: _144  and  _145
REMARK   56  A    between atoms: _147  and  _149
REMARK   57  A    between atoms: _149  and  _150
REMARK   58  A    between atoms: _149  and  _152
REMARK   59  A    between atoms: _152  and  _153
REMARK   60  A    between atoms: _156  and  _158
REMARK   61  A    between atoms: _158  and  _159
REMARK   62  A    between atoms: _158  and  _161
REMARK   63  A    between atoms: _161  and  _162
REMARK   64  A    between atoms: _167  and  _168
REMARK   65  A    between atoms: _170  and  _172
REMARK   66  A    between atoms: _172  and  _173
REMARK   67  A    between atoms: _172  and  _175
REMARK   68  A    between atoms: _175  and  _176
REMARK   69  A    between atoms: _181  and  _182
REMARK   70  A    between atoms: _184  and  _186
REMARK   71  A    between atoms: _186  and  _187
REMARK   72  A    between atoms: _186  and  _189
REMARK   73  A    between atoms: _189  and  _190
REMARK   74  A    between atoms: _193  and  _195
REMARK   75  A    between atoms: _195  and  _196
REMARK   76  A    between atoms: _195  and  _198
REMARK   77  A    between atoms: _198  and  _199
REMARK   78  A    between atoms: _204  and  _206
REMARK   79  A    between atoms: _206  and  _207
REMARK   80  A    between atoms: _206  and  _209
REMARK   81  A    between atoms: _212  and  _214
REMARK   82  A    between atoms: _214  and  _215
REMARK   83  A    between atoms: _214  and  _217
REMARK   84  A    between atoms: _217  and  _218
REMARK   85  A    between atoms: _218  and  _219
REMARK   86  A    between atoms: _222  and  _224
REMARK   87  A    between atoms: _224  and  _225
REMARK   88  A    between atoms: _224  and  _227
REMARK   89  A    between atoms: _227  and  _228
REMARK   90  A    between atoms: _231  and  _233
REMARK   91  A    between atoms: _233  and  _234
REMARK   92  A    between atoms: _233  and  _236
REMARK   93  A    between atoms: _236  and  _237
REMARK   94  A    between atoms: _243  and  _245
REMARK   95  A    between atoms: _245  and  _246
REMARK   96  A    between atoms: _245  and  _248
REMARK   97  A    between atoms: _248  and  _249
REMARK   98  A    between atoms: _255  and  _257
REMARK   99  A    between atoms: _257  and  _258
REMARK  100  A    between atoms: _257  and  _260
REMARK  101  A    between atoms: _260  and  _261
REMARK  102  A    between atoms: _261  and  _262
REMARK  103  A    between atoms: _267  and  _269
REMARK  104  A    between atoms: _269  and  _270
REMARK  105  A    between atoms: _269  and  _272
REMARK  106  A    between atoms: _275  and  _277
REMARK  107  A    between atoms: _277  and  _278
REMARK  108  A    between atoms: _277  and  _280
REMARK  109  A    between atoms: _280  and  _281
REMARK  110  A    between atoms: _284  and  _286
REMARK  111  A    between atoms: _286  and  _287
REMARK  112  A    between atoms: _286  and  _289
REMARK  113  A    between atoms: _292  and  _294
REMARK  114  A    between atoms: _294  and  _295
REMARK  115  A    between atoms: _297  and  _299
REMARK  116  A    between atoms: _299  and  _300
REMARK  117  A    between atoms: _299  and  _302
REMARK  118  A    between atoms: _302  and  _303
REMARK  119  A    between atoms: _309  and  _311
REMARK  120  A    between atoms: _311  and  _312
REMARK  121  A    between atoms: _311  and  _314
REMARK  122  A    between atoms: _314  and  _315
REMARK  123  A    between atoms: _318  and  _320
REMARK  124  A    between atoms: _320  and  _321
REMARK  125  A    between atoms: _320  and  _323
REMARK  126  A    between atoms: _323  and  _324
REMARK  127  A    between atoms: _330  and  _332
REMARK  128  A    between atoms: _332  and  _333
REMARK  129  A    between atoms: _332  and  _335
REMARK  130  A    between atoms: _335  and  _336
REMARK                            x       y       z     vdW  Elec       q    Type
REMARK                         _______ _______ _______ _____ _____    ______ ____
ROOT
ATOM      1  O   HOH     1     -17.829  -9.948   7.813  0.00  0.00    +0.000 OA
ENDROOT
TORSDOF 0
REMARK  Name = ../refined-set-2016/3lzz/3lzz_pocket.pdb
REMARK  130 active torsions:
REMARK  status: ('A' for Active; 'I' for Inactive)
REMARK    1  A    between atoms: _1  and  _3
REMARK    2  A    between atoms: _3  and  _4
REMARK    3  A    between atoms: _3  and  _6
REMARK    4  A    between atoms: _6  and  _7
REMARK    5  A    between atoms: _11  and  _12
REMARK    6  A    between atoms: _17  and  _19
REMARK    7  A    between atoms: _19  and  _20
REMARK    8  A    between atoms: _19  and  _22
REMARK    9  A    between atoms: _22  and  _23
REMARK   10  A    between atoms: _29  and  _30
REMARK   11  A    between atoms: _35  and  _37
REMARK   12  A    between atoms: _37  and  _38
REMARK   13  A    between atoms: _41  and  _43
REMARK   14  A    between atoms: _43  and  _44
REMARK   15  A    between atoms: _43  and  _46
REMARK   16  A    between atoms: _46  and  _47
REMARK   17  A    between atoms: _53  and  _55
REMARK   18  A    between atoms: _55  and  _56
REMARK   19  A    between atoms: _55  and  _58
REMARK   20  A    between atoms: _58  and  _59
REMARK   21  A    between atoms: _59  and  _60
REMARK   22  A    between atoms: _60  and  _61
REMARK   23  A    between atoms: _70  and  _72
REMARK   24  A    between atoms: _72  and  _73
REMARK   25  A    between atoms: _72  and  _75
REMARK   26  A    between atoms: _75  and  _76
REMARK   27  A    between atoms: _76  and  _77
REMARK   28  A    between atoms: _80  and  _82
REMARK   29  A    between atoms: _82  and  _83
REMARK   30  A    between atoms: _82  and  _85
REMARK   31  A    between atoms: _85  and  _86
REMARK   32  A    between atoms: _89  and  _91
REMARK   33  A    between atoms: _91  and  _92
REMARK   34  A    between atoms: _91  and  _94
REMARK   35  A    between atoms: _94  and  _95
REMARK   36  A    between atoms: _100  and  _101
REMARK   37  A    between atoms: _103  and  _105
REMARK   38  A    between atoms: _105  and  _106
REMARK   39  A    between atoms: _105  and  _108
REMARK   40  A    between atoms: _108  and  _109
REMARK   41  A    between atoms: _109  and  _110
REMARK   42  A    between atoms: _110  and  _111
REMARK   43  A    between atoms: _120  and  _122
REMARK   44  A    between atoms: _122  and  _123
REMARK   45  A    between atoms: _122  and  _125
REMARK   46  A    between atoms: _125  and  _126
REMARK   47  A    between atoms: _129  and  _131
REMARK   48  A    between atoms: _131  and  _132
REMARK   49  A    between atoms: _131  and  _134
REMARK   50  A    between atoms: _134  and  _135
REMARK   51  A    between atoms: _138  and  _140
REMARK   52  A    between atoms: _140  and  _141
REMARK   53  A    between atoms: _140  and  _143
REMARK   54  A    between atoms: _143  and  _144
REMARK   55  A    between atoms: _144  and  _145
REMARK   56  A    between atoms: _147  and  _149
REMARK   57  A    between atoms: _149  and  _150
REMARK   58  A    between atoms: _149  and  _152
REMARK   59  A    between atoms: _152  and  _153
REMARK   60  A    between atoms: _156  and  _158
REMARK   61  A    between atoms: _158  and  _159
REMARK   62  A    between atoms: _158  and  _161
REMARK   63  A    between atoms: _161  and  _162
REMARK   64  A    between atoms: _167  and  _168
REMARK   65  A    between atoms: _170  and  _172
REMARK   66  A    between atoms: _172  and  _173
REMARK   67  A    between atoms: _172  and  _175
REMARK   68  A    between atoms: _175  and  _176
REMARK   69  A    between atoms: _181  and  _182
REMARK   70  A    between atoms: _184  and  _186
REMARK   71  A    between atoms: _186  and  _187
REMARK   72  A    between atoms: _186  and  _189
REMARK   73  A    between atoms: _189  and  _190
REMARK   74  A    between atoms: _193  and  _195
REMARK   75  A    between atoms: _195  and  _196
REMARK   76  A    between atoms: _195  and  _198
REMARK   77  A    between atoms: _198  and  _199
REMARK   78  A    between atoms: _204  and  _206
REMARK   79  A    between atoms: _206  and  _207
REMARK   80  A    between atoms: _206  and  _209
REMARK   81  A    between atoms: _212  and  _214
REMARK   82  A    between atoms: _214  and  _215
REMARK   83  A    between atoms: _214  and  _217
REMARK   84  A    between atoms: _217  and  _218
REMARK   85  A    between atoms: _218  and  _219
REMARK   86  A    between atoms: _222  and  _224
REMARK   87  A    between atoms: _224  and  _225
REMARK   88  A    between atoms: _224  and  _227
REMARK   89  A    between atoms: _227  and  _228
REMARK   90  A    between atoms: _231  and  _233
REMARK   91  A    between atoms: _233  and  _234
REMARK   92  A    between atoms: _233  and  _236
REMARK   93  A    between atoms: _236  and  _237
REMARK   94  A    between atoms: _243  and  _245
REMARK   95  A    between atoms: _245  and  _246
REMARK   96  A    between atoms: _245  and  _248
REMARK   97  A    between atoms: _248  and  _249
REMARK   98  A    between atoms: _255  and  _257
REMARK   99  A    between atoms: _257  and  _258
REMARK  100  A    between atoms: _257  and  _260
REMARK  101  A    between atoms: _260  and  _261
REMARK  102  A    between atoms: _261  and  _262
REMARK  103  A    between atoms: _267  and  _269
REMARK  104  A    between atoms: _269  and  _270
REMARK  105  A    between atoms: _269  and  _272
REMARK  106  A    between atoms: _275  and  _277
REMARK  107  A    between atoms: _277  and  _278
REMARK  108  A    between atoms: _277  and  _280
REMARK  109  A    between atoms: _280  and  _281
REMARK  110  A    between atoms: _284  and  _286
REMARK  111  A    between atoms: _286  and  _287
REMARK  112  A    between atoms: _286  and  _289
REMARK  113  A    between atoms: _292  and  _294
REMARK  114  A    between atoms: _294  and  _295
REMARK  115  A    between atoms: _297  and  _299
REMARK  116  A    between atoms: _299  and  _300
REMARK  117  A    between atoms: _299  and  _302
REMARK  118  A    between atoms: _302  and  _303
REMARK  119  A    between atoms: _309  and  _311
REMARK  120  A    between atoms: _311  and  _312
REMARK  121  A    between atoms: _311  and  _314
REMARK  122  A    between atoms: _314  and  _315
REMARK  123  A    between atoms: _318  and  _320
REMARK  124  A    between atoms: _320  and  _321
REMARK  125  A    between atoms: _320  and  _323
REMARK  126  A    between atoms: _323  and  _324
REMARK  127  A    between atoms: _330  and  _332
REMARK  128  A    between atoms: _332  and  _333
REMARK  129  A    between atoms: _332  and  _335
REMARK  130  A    between atoms: _335  and  _336
REMARK                            x       y       z     vdW  Elec       q    Type
REMARK                         _______ _______ _______ _____ _____    ______ ____
ROOT
ATOM      1  O   HOH     1     -34.578 -11.659   6.836  0.00  0.00    +0.000 OA
ENDROOT
TORSDOF 0
REMARK  Name = ../refined-set-2016/3lzz/3lzz_pocket.pdb
REMARK  130 active torsions:
REMARK  status: ('A' for Active; 'I' for Inactive)
REMARK    1  A    between atoms: _1  and  _3
REMARK    2  A    between atoms: _3  and  _4
REMARK    3  A    between atoms: _3  and  _6
REMARK    4  A    between atoms: _6  and  _7
REMARK    5  A    between atoms: _11  and  _12
REMARK    6  A    between atoms: _17  and  _19
REMARK    7  A    between atoms: _19  and  _20
REMARK    8  A    between atoms: _19  and  _22
REMARK    9  A    between atoms: _22  and  _23
REMARK   10  A    between atoms: _29  and  _30
REMARK   11  A    between atoms: _35  and  _37
REMARK   12  A    between atoms: _37  and  _38
REMARK   13  A    between atoms: _41  and  _43
REMARK   14  A    between atoms: _43  and  _44
REMARK   15  A    between atoms: _43  and  _46
REMARK   16  A    between atoms: _46  and  _47
REMARK   17  A    between atoms: _53  and  _55
REMARK   18  A    between atoms: _55  and  _56
REMARK   19  A    between atoms: _55  and  _58
REMARK   20  A    between atoms: _58  and  _59
REMARK   21  A    between atoms: _59  and  _60
REMARK   22  A    between atoms: _60  and  _61
REMARK   23  A    between atoms: _70  and  _72
REMARK   24  A    between atoms: _72  and  _73
REMARK   25  A    between atoms: _72  and  _75
REMARK   26  A    between atoms: _75  and  _76
REMARK   27  A    between atoms: _76  and  _77
REMARK   28  A    between atoms: _80  and  _82
REMARK   29  A    between atoms: _82  and  _83
REMARK   30  A    between atoms: _82  and  _85
REMARK   31  A    between atoms: _85  and  _86
REMARK   32  A    between atoms: _89  and  _91
REMARK   33  A    between atoms: _91  and  _92
REMARK   34  A    between atoms: _91  and  _94
REMARK   35  A    between atoms: _94  and  _95
REMARK   36  A    between atoms: _100  and  _101
REMARK   37  A    between atoms: _103  and  _105
REMARK   38  A    between atoms: _105  and  _106
REMARK   39  A    between atoms: _105  and  _108
REMARK   40  A    between atoms: _108  and  _109
REMARK   41  A    between atoms: _109  and  _110
REMARK   42  A    between atoms: _110  and  _111
REMARK   43  A    between atoms: _120  and  _122
REMARK   44  A    between atoms: _122  and  _123
REMARK   45  A    between atoms: _122  and  _125
REMARK   46  A    between atoms: _125  and  _126
REMARK   47  A    between atoms: _129  and  _131
REMARK   48  A    between atoms: _131  and  _132
REMARK   49  A    between atoms: _131  and  _134
REMARK   50  A    between atoms: _134  and  _135
REMARK   51  A    between atoms: _138  and  _140
REMARK   52  A    between atoms: _140  and  _141
REMARK   53  A    between atoms: _140  and  _143
REMARK   54  A    between atoms: _143  and  _144
REMARK   55  A    between atoms: _144  and  _145
REMARK   56  A    between atoms: _147  and  _149
REMARK   57  A    between atoms: _149  and  _150
REMARK   58  A    between atoms: _149  and  _152
REMARK   59  A    between atoms: _152  and  _153
REMARK   60  A    between atoms: _156  and  _158
REMARK   61  A    between atoms: _158  and  _159
REMARK   62  A    between atoms: _158  and  _161
REMARK   63  A    between atoms: _161  and  _162
REMARK   64  A    between atoms: _167  and  _168
REMARK   65  A    between atoms: _170  and  _172
REMARK   66  A    between atoms: _172  and  _173
REMARK   67  A    between atoms: _172  and  _175
REMARK   68  A    between atoms: _175  and  _176
REMARK   69  A    between atoms: _181  and  _182
REMARK   70  A    between atoms: _184  and  _186
REMARK   71  A    between atoms: _186  and  _187
REMARK   72  A    between atoms: _186  and  _189
REMARK   73  A    between atoms: _189  and  _190
REMARK   74  A    between atoms: _193  and  _195
REMARK   75  A    between atoms: _195  and  _196
REMARK   76  A    between atoms: _195  and  _198
REMARK   77  A    between atoms: _198  and  _199
REMARK   78  A    between atoms: _204  and  _206
REMARK   79  A    between atoms: _206  and  _207
REMARK   80  A    between atoms: _206  and  _209
REMARK   81  A    between atoms: _212  and  _214
REMARK   82  A    between atoms: _214  and  _215
REMARK   83  A    between atoms: _214  and  _217
REMARK   84  A    between atoms: _217  and  _218
REMARK   85  A    between atoms: _218  and  _219
REMARK   86  A    between atoms: _222  and  _224
REMARK   87  A    between atoms: _224  and  _225
REMARK   88  A    between atoms: _224  and  _227
REMARK   89  A    between atoms: _227  and  _228
REMARK   90  A    between atoms: _231  and  _233
REMARK   91  A    between atoms: _233  and  _234
REMARK   92  A    between atoms: _233  and  _236
REMARK   93  A    between atoms: _236  and  _237
REMARK   94  A    between atoms: _243  and  _245
REMARK   95  A    between atoms: _245  and  _246
REMARK   96  A    between atoms: _245  and  _248
REMARK   97  A    between atoms: _248  and  _249
REMARK   98  A    between atoms: _255  and  _257
REMARK   99  A    between atoms: _257  and  _258
REMARK  100  A    between atoms: _257  and  _260
REMARK  101  A    between atoms: _260  and  _261
REMARK  102  A    between atoms: _261  and  _262
REMARK  103  A    between atoms: _267  and  _269
REMARK  104  A    between atoms: _269  and  _270
REMARK  105  A    between atoms: _269  and  _272
REMARK  106  A    between atoms: _275  and  _277
REMARK  107  A    between atoms: _277  and  _278
REMARK  108  A    between atoms: _277  and  _280
REMARK  109  A    between atoms: _280  and  _281
REMARK  110  A    between atoms: _284  and  _286
REMARK  111  A    between atoms: _286  and  _287
REMARK  112  A    between atoms: _286  and  _289
REMARK  113  A    between atoms: _292  and  _294
REMARK  114  A    between atoms: _294  and  _295
REMARK  115  A    between atoms: _297  and  _299
REMARK  116  A    between atoms: _299  and  _300
REMARK  117  A    between atoms: _299  and  _302
REMARK  118  A    between atoms: _302  and  _303
REMARK  119  A    between atoms: _309  and  _311
REMARK  120  A    between atoms: _311  and  _312
REMARK  121  A    between atoms: _311  and  _314
REMARK  122  A    between atoms: _314  and  _315
REMARK  123  A    between atoms: _318  and  _320
REMARK  124  A    between atoms: _320  and  _321
REMARK  125  A    between atoms: _320  and  _323
REMARK  126  A    between atoms: _323  and  _324
REMARK  127  A    between atoms: _330  and  _332
REMARK  128  A    between atoms: _332  and  _333
REMARK  129  A    between atoms: _332  and  _335
REMARK  130  A    between atoms: _335  and  _336
REMARK                            x       y       z     vdW  Elec       q    Type
REMARK                         _______ _______ _______ _____ _____    ______ ____
ROOT
ATOM      1  O   HOH     1     -20.744 -12.846   9.975  0.00  0.00    +0.000 OA
ENDROOT
TORSDOF 0
REMARK  Name = ../refined-set-2016/3lzz/3lzz_pocket.pdb
REMARK  130 active torsions:
REMARK  status: ('A' for Active; 'I' for Inactive)
REMARK    1  A    between atoms: _1  and  _3
REMARK    2  A    between atoms: _3  and  _4
REMARK    3  A    between atoms: _3  and  _6
REMARK    4  A    between atoms: _6  and  _7
REMARK    5  A    between atoms: _11  and  _12
REMARK    6  A    between atoms: _17  and  _19
REMARK    7  A    between atoms: _19  and  _20
REMARK    8  A    between atoms: _19  and  _22
REMARK    9  A    between atoms: _22  and  _23
REMARK   10  A    between atoms: _29  and  _30
REMARK   11  A    between atoms: _35  and  _37
REMARK   12  A    between atoms: _37  and  _38
REMARK   13  A    between atoms: _41  and  _43
REMARK   14  A    between atoms: _43  and  _44
REMARK   15  A    between atoms: _43  and  _46
REMARK   16  A    between atoms: _46  and  _47
REMARK   17  A    between atoms: _53  and  _55
REMARK   18  A    between atoms: _55  and  _56
REMARK   19  A    between atoms: _55  and  _58
REMARK   20  A    between atoms: _58  and  _59
REMARK   21  A    between atoms: _59  and  _60
REMARK   22  A    between atoms: _60  and  _61
REMARK   23  A    between atoms: _70  and  _72
REMARK   24  A    between atoms: _72  and  _73
REMARK   25  A    between atoms: _72  and  _75
REMARK   26  A    between atoms: _75  and  _76
REMARK   27  A    between atoms: _76  and  _77
REMARK   28  A    between atoms: _80  and  _82
REMARK   29  A    between atoms: _82  and  _83
REMARK   30  A    between atoms: _82  and  _85
REMARK   31  A    between atoms: _85  and  _86
REMARK   32  A    between atoms: _89  and  _91
REMARK   33  A    between atoms: _91  and  _92
REMARK   34  A    between atoms: _91  and  _94
REMARK   35  A    between atoms: _94  and  _95
REMARK   36  A    between atoms: _100  and  _101
REMARK   37  A    between atoms: _103  and  _105
REMARK   38  A    between atoms: _105  and  _106
REMARK   39  A    between atoms: _105  and  _108
REMARK   40  A    between atoms: _108  and  _109
REMARK   41  A    between atoms: _109  and  _110
REMARK   42  A    between atoms: _110  and  _111
REMARK   43  A    between atoms: _120  and  _122
REMARK   44  A    between atoms: _122  and  _123
REMARK   45  A    between atoms: _122  and  _125
REMARK   46  A    between atoms: _125  and  _126
REMARK   47  A    between atoms: _129  and  _131
REMARK   48  A    between atoms: _131  and  _132
REMARK   49  A    between atoms: _131  and  _134
REMARK   50  A    between atoms: _134  and  _135
REMARK   51  A    between atoms: _138  and  _140
REMARK   52  A    between atoms: _140  and  _141
REMARK   53  A    between atoms: _140  and  _143
REMARK   54  A    between atoms: _143  and  _144
REMARK   55  A    between atoms: _144  and  _145
REMARK   56  A    between atoms: _147  and  _149
REMARK   57  A    between atoms: _149  and  _150
REMARK   58  A    between atoms: _149  and  _152
REMARK   59  A    between atoms: _152  and  _153
REMARK   60  A    between atoms: _156  and  _158
REMARK   61  A    between atoms: _158  and  _159
REMARK   62  A    between atoms: _158  and  _161
REMARK   63  A    between atoms: _161  and  _162
REMARK   64  A    between atoms: _167  and  _168
REMARK   65  A    between atoms: _170  and  _172
REMARK   66  A    between atoms: _172  and  _173
REMARK   67  A    between atoms: _172  and  _175
REMARK   68  A    between atoms: _175  and  _176
REMARK   69  A    between atoms: _181  and  _182
REMARK   70  A    between atoms: _184  and  _186
REMARK   71  A    between atoms: _186  and  _187
REMARK   72  A    between atoms: _186  and  _189
REMARK   73  A    between atoms: _189  and  _190
REMARK   74  A    between atoms: _193  and  _195
REMARK   75  A    between atoms: _195  and  _196
REMARK   76  A    between atoms: _195  and  _198
REMARK   77  A    between atoms: _198  and  _199
REMARK   78  A    between atoms: _204  and  _206
REMARK   79  A    between atoms: _206  and  _207
REMARK   80  A    between atoms: _206  and  _209
REMARK   81  A    between atoms: _212  and  _214
REMARK   82  A    between atoms: _214  and  _215
REMARK   83  A    between atoms: _214  and  _217
REMARK   84  A    between atoms: _217  and  _218
REMARK   85  A    between atoms: _218  and  _219
REMARK   86  A    between atoms: _222  and  _224
REMARK   87  A    between atoms: _224  and  _225
REMARK   88  A    between atoms: _224  and  _227
REMARK   89  A    between atoms: _227  and  _228
REMARK   90  A    between atoms: _231  and  _233
REMARK   91  A    between atoms: _233  and  _234
REMARK   92  A    between atoms: _233  and  _236
REMARK   93  A    between atoms: _236  and  _237
REMARK   94  A    between atoms: _243  and  _245
REMARK   95  A    between atoms: _245  and  _246
REMARK   96  A    between atoms: _245  and  _248
REMARK   97  A    between atoms: _248  and  _249
REMARK   98  A    between atoms: _255  and  _257
REMARK   99  A    between atoms: _257  and  _258
REMARK  100  A    between atoms: _257  and  _260
REMARK  101  A    between atoms: _260  and  _261
REMARK  102  A    between atoms: _261  and  _262
REMARK  103  A    between atoms: _267  and  _269
REMARK  104  A    between atoms: _269  and  _270
REMARK  105  A    between atoms: _269  and  _272
REMARK  106  A    between atoms: _275  and  _277
REMARK  107  A    between atoms: _277  and  _278
REMARK  108  A    between atoms: _277  and  _280
REMARK  109  A    between atoms: _280  and  _281
REMARK  110  A    between atoms: _284  and  _286
REMARK  111  A    between atoms: _286  and  _287
REMARK  112  A    between atoms: _286  and  _289
REMARK  113  A    between atoms: _292  and  _294
REMARK  114  A    between atoms: _294  and  _295
REMARK  115  A    between atoms: _297  and  _299
REMARK  116  A    between atoms: _299  and  _300
REMARK  117  A    between atoms: _299  and  _302
REMARK  118  A    between atoms: _302  and  _303
REMARK  119  A    between atoms: _309  and  _311
REMARK  120  A    between atoms: _311  and  _312
REMARK  121  A    between atoms: _311  and  _314
REMARK  122  A    between atoms: _314  and  _315
REMARK  123  A    between atoms: _318  and  _320
REMARK  124  A    between atoms: _320  and  _321
REMARK  125  A    between atoms: _320  and  _323
REMARK  126  A    between atoms: _323  and  _324
REMARK  127  A    between atoms: _330  and  _332
REMARK  128  A    between atoms: _332  and  _333
REMARK  129  A    between atoms: _332  and  _335
REMARK  130  A    between atoms: _335  and  _336
REMARK                            x       y       z     vdW  Elec       q    Type
REMARK                         _______ _______ _______ _____ _____    ______ ____
ROOT
ATOM      1  O   HOH     1     -26.677 -13.023  14.981  0.00  0.00    +0.000 OA
ENDROOT
TORSDOF 0
REMARK  Name = ../refined-set-2016/3lzz/3lzz_pocket.pdb
REMARK  130 active torsions:
REMARK  status: ('A' for Active; 'I' for Inactive)
REMARK    1  A    between atoms: _1  and  _3
REMARK    2  A    between atoms: _3  and  _4
REMARK    3  A    between atoms: _3  and  _6
REMARK    4  A    between atoms: _6  and  _7
REMARK    5  A    between atoms: _11  and  _12
REMARK    6  A    between atoms: _17  and  _19
REMARK    7  A    between atoms: _19  and  _20
REMARK    8  A    between atoms: _19  and  _22
REMARK    9  A    between atoms: _22  and  _23
REMARK   10  A    between atoms: _29  and  _30
REMARK   11  A    between atoms: _35  and  _37
REMARK   12  A    between atoms: _37  and  _38
REMARK   13  A    between atoms: _41  and  _43
REMARK   14  A    between atoms: _43  and  _44
REMARK   15  A    between atoms: _43  and  _46
REMARK   16  A    between atoms: _46  and  _47
REMARK   17  A    between atoms: _53  and  _55
REMARK   18  A    between atoms: _55  and  _56
REMARK   19  A    between atoms: _55  and  _58
REMARK   20  A    between atoms: _58  and  _59
REMARK   21  A    between atoms: _59  and  _60
REMARK   22  A    between atoms: _60  and  _61
REMARK   23  A    between atoms: _70  and  _72
REMARK   24  A    between atoms: _72  and  _73
REMARK   25  A    between atoms: _72  and  _75
REMARK   26  A    between atoms: _75  and  _76
REMARK   27  A    between atoms: _76  and  _77
REMARK   28  A    between atoms: _80  and  _82
REMARK   29  A    between atoms: _82  and  _83
REMARK   30  A    between atoms: _82  and  _85
REMARK   31  A    between atoms: _85  and  _86
REMARK   32  A    between atoms: _89  and  _91
REMARK   33  A    between atoms: _91  and  _92
REMARK   34  A    between atoms: _91  and  _94
REMARK   35  A    between atoms: _94  and  _95
REMARK   36  A    between atoms: _100  and  _101
REMARK   37  A    between atoms: _103  and  _105
REMARK   38  A    between atoms: _105  and  _106
REMARK   39  A    between atoms: _105  and  _108
REMARK   40  A    between atoms: _108  and  _109
REMARK   41  A    between atoms: _109  and  _110
REMARK   42  A    between atoms: _110  and  _111
REMARK   43  A    between atoms: _120  and  _122
REMARK   44  A    between atoms: _122  and  _123
REMARK   45  A    between atoms: _122  and  _125
REMARK   46  A    between atoms: _125  and  _126
REMARK   47  A    between atoms: _129  and  _131
REMARK   48  A    between atoms: _131  and  _132
REMARK   49  A    between atoms: _131  and  _134
REMARK   50  A    between atoms: _134  and  _135
REMARK   51  A    between atoms: _138  and  _140
REMARK   52  A    between atoms: _140  and  _141
REMARK   53  A    between atoms: _140  and  _143
REMARK   54  A    between atoms: _143  and  _144
REMARK   55  A    between atoms: _144  and  _145
REMARK   56  A    between atoms: _147  and  _149
REMARK   57  A    between atoms: _149  and  _150
REMARK   58  A    between atoms: _149  and  _152
REMARK   59  A    between atoms: _152  and  _153
REMARK   60  A    between atoms: _156  and  _158
REMARK   61  A    between atoms: _158  and  _159
REMARK   62  A    between atoms: _158  and  _161
REMARK   63  A    between atoms: _161  and  _162
REMARK   64  A    between atoms: _167  and  _168
REMARK   65  A    between atoms: _170  and  _172
REMARK   66  A    between atoms: _172  and  _173
REMARK   67  A    between atoms: _172  and  _175
REMARK   68  A    between atoms: _175  and  _176
REMARK   69  A    between atoms: _181  and  _182
REMARK   70  A    between atoms: _184  and  _186
REMARK   71  A    between atoms: _186  and  _187
REMARK   72  A    between atoms: _186  and  _189
REMARK   73  A    between atoms: _189  and  _190
REMARK   74  A    between atoms: _193  and  _195
REMARK   75  A    between atoms: _195  and  _196
REMARK   76  A    between atoms: _195  and  _198
REMARK   77  A    between atoms: _198  and  _199
REMARK   78  A    between atoms: _204  and  _206
REMARK   79  A    between atoms: _206  and  _207
REMARK   80  A    between atoms: _206  and  _209
REMARK   81  A    between atoms: _212  and  _214
REMARK   82  A    between atoms: _214  and  _215
REMARK   83  A    between atoms: _214  and  _217
REMARK   84  A    between atoms: _217  and  _218
REMARK   85  A    between atoms: _218  and  _219
REMARK   86  A    between atoms: _222  and  _224
REMARK   87  A    between atoms: _224  and  _225
REMARK   88  A    between atoms: _224  and  _227
REMARK   89  A    between atoms: _227  and  _228
REMARK   90  A    between atoms: _231  and  _233
REMARK   91  A    between atoms: _233  and  _234
REMARK   92  A    between atoms: _233  and  _236
REMARK   93  A    between atoms: _236  and  _237
REMARK   94  A    between atoms: _243  and  _245
REMARK   95  A    between atoms: _245  and  _246
REMARK   96  A    between atoms: _245  and  _248
REMARK   97  A    between atoms: _248  and  _249
REMARK   98  A    between atoms: _255  and  _257
REMARK   99  A    between atoms: _257  and  _258
REMARK  100  A    between atoms: _257  and  _260
REMARK  101  A    between atoms: _260  and  _261
REMARK  102  A    between atoms: _261  and  _262
REMARK  103  A    between atoms: _267  and  _269
REMARK  104  A    between atoms: _269  and  _270
REMARK  105  A    between atoms: _269  and  _272
REMARK  106  A    between atoms: _275  and  _277
REMARK  107  A    between atoms: _277  and  _278
REMARK  108  A    between atoms: _277  and  _280
REMARK  109  A    between atoms: _280  and  _281
REMARK  110  A    between atoms: _284  and  _286
REMARK  111  A    between atoms: _286  and  _287
REMARK  112  A    between atoms: _286  and  _289
REMARK  113  A    between atoms: _292  and  _294
REMARK  114  A    between atoms: _294  and  _295
REMARK  115  A    between atoms: _297  and  _299
REMARK  116  A    between atoms: _299  and  _300
REMARK  117  A    between atoms: _299  and  _302
REMARK  118  A    between atoms: _302  and  _303
REMARK  119  A    between atoms: _309  and  _311
REMARK  120  A    between atoms: _311  and  _312
REMARK  121  A    between atoms: _311  and  _314
REMARK  122  A    between atoms: _314  and  _315
REMARK  123  A    between atoms: _318  and  _320
REMARK  124  A    between atoms: _320  and  _321
REMARK  125  A    between atoms: _320  and  _323
REMARK  126  A    between atoms: _323  and  _324
REMARK  127  A    between atoms: _330  and  _332
REMARK  128  A    between atoms: _332  and  _333
REMARK  129  A    between atoms: _332  and  _335
REMARK  130  A    between atoms: _335  and  _336
REMARK                            x       y       z     vdW  Elec       q    Type
REMARK                         _______ _______ _______ _____ _____    ______ ____
ROOT
ATOM      1  O   HOH     1     -20.583  -5.870   7.585  0.00  0.00    +0.000 OA
ENDROOT
TORSDOF 0
