REMARK  Name = ../refined-set-2016/1w3j/1w3j_pocket.pdb
REMARK  150 active torsions:
REMARK  status: ('A' for Active; 'I' for Inactive)
REMARK    1  A    between atoms: _1  and  _3
REMARK    2  A    between atoms: _3  and  _4
REMARK    3  A    between atoms: _7  and  _9
REMARK    4  A    between atoms: _9  and  _10
REMARK    5  A    between atoms: _9  and  _12
REMARK    6  A    between atoms: _12  and  _13
REMARK    7  A    between atoms: _16  and  _18
REMARK    8  A    between atoms: _18  and  _19
REMARK    9  A    between atoms: _22  and  _24
REMARK   10  A    between atoms: _24  and  _25
REMARK   11  A    between atoms: _24  and  _27
REMARK   12  A    between atoms: _27  and  _28
REMARK   13  A    between atoms: _30  and  _32
REMARK   14  A    between atoms: _32  and  _33
REMARK   15  A    between atoms: _32  and  _35
REMARK   16  A    between atoms: _35  and  _36
REMARK   17  A    between atoms: _41  and  _42
REMARK   18  A    between atoms: _44  and  _46
REMARK   19  A    between atoms: _46  and  _47
REMARK   20  A    between atoms: _46  and  _49
REMARK   21  A    between atoms: _49  and  _50
REMARK   22  A    between atoms: _50  and  _51
REMARK   23  A    between atoms: _56  and  _58
REMARK   24  A    between atoms: _58  and  _59
REMARK   25  A    between atoms: _58  and  _61
REMARK   26  A    between atoms: _61  and  _62
REMARK   27  A    between atoms: _62  and  _63
REMARK   28  A    between atoms: _63  and  _64
REMARK   29  A    between atoms: _73  and  _75
REMARK   30  A    between atoms: _75  and  _76
REMARK   31  A    between atoms: _75  and  _78
REMARK   32  A    between atoms: _78  and  _79
REMARK   33  A    between atoms: _84  and  _86
REMARK   34  A    between atoms: _86  and  _87
REMARK   35  A    between atoms: _86  and  _89
REMARK   36  A    between atoms: _89  and  _90
REMARK   37  A    between atoms: _100  and  _102
REMARK   38  A    between atoms: _102  and  _103
REMARK   39  A    between atoms: _102  and  _105
REMARK   40  A    between atoms: _105  and  _106
REMARK   41  A    between atoms: _111  and  _113
REMARK   42  A    between atoms: _113  and  _114
REMARK   43  A    between atoms: _113  and  _116
REMARK   44  A    between atoms: _116  and  _117
REMARK   45  A    between atoms: _117  and  _118
REMARK   46  A    between atoms: _121  and  _123
REMARK   47  A    between atoms: _123  and  _124
REMARK   48  A    between atoms: _123  and  _126
REMARK   49  A    between atoms: _129  and  _131
REMARK   50  A    between atoms: _131  and  _132
REMARK   51  A    between atoms: _131  and  _134
REMARK   52  A    between atoms: _134  and  _135
REMARK   53  A    between atoms: _140  and  _142
REMARK   54  A    between atoms: _142  and  _143
REMARK   55  A    between atoms: _142  and  _145
REMARK   56  A    between atoms: _148  and  _150
REMARK   57  A    between atoms: _150  and  _151
REMARK   58  A    between atoms: _150  and  _153
REMARK   59  A    between atoms: _153  and  _154
REMARK   60  A    between atoms: _160  and  _162
REMARK   61  A    between atoms: _162  and  _163
REMARK   62  A    between atoms: _162  and  _165
REMARK   63  A    between atoms: _165  and  _166
REMARK   64  A    between atoms: _171  and  _173
REMARK   65  A    between atoms: _173  and  _174
REMARK   66  A    between atoms: _173  and  _176
REMARK   67  A    between atoms: _176  and  _177
REMARK   68  A    between atoms: _182  and  _184
REMARK   69  A    between atoms: _184  and  _185
REMARK   70  A    between atoms: _184  and  _187
REMARK   71  A    between atoms: _187  and  _188
REMARK   72  A    between atoms: _193  and  _195
REMARK   73  A    between atoms: _195  and  _196
REMARK   74  A    between atoms: _195  and  _198
REMARK   75  A    between atoms: _198  and  _199
REMARK   76  A    between atoms: _204  and  _205
REMARK   77  A    between atoms: _207  and  _209
REMARK   78  A    between atoms: _209  and  _210
REMARK   79  A    between atoms: _209  and  _212
REMARK   80  A    between atoms: _212  and  _213
REMARK   81  A    between atoms: _218  and  _219
REMARK   82  A    between atoms: _221  and  _223
REMARK   83  A    between atoms: _223  and  _224
REMARK   84  A    between atoms: _223  and  _226
REMARK   85  A    between atoms: _226  and  _227
REMARK   86  A    between atoms: _227  and  _228
REMARK   87  A    between atoms: _230  and  _232
REMARK   88  A    between atoms: _232  and  _233
REMARK   89  A    between atoms: _232  and  _235
REMARK   90  A    between atoms: _235  and  _236
REMARK   91  A    between atoms: _246  and  _248
REMARK   92  A    between atoms: _248  and  _249
REMARK   93  A    between atoms: _248  and  _251
REMARK   94  A    between atoms: _251  and  _252
REMARK   95  A    between atoms: _255  and  _257
REMARK   96  A    between atoms: _257  and  _258
REMARK   97  A    between atoms: _257  and  _260
REMARK   98  A    between atoms: _260  and  _261
REMARK   99  A    between atoms: _261  and  _262
REMARK  100  A    between atoms: _265  and  _267
REMARK  101  A    between atoms: _267  and  _268
REMARK  102  A    between atoms: _267  and  _270
REMARK  103  A    between atoms: _270  and  _271
REMARK  104  A    between atoms: _276  and  _278
REMARK  105  A    between atoms: _278  and  _279
REMARK  106  A    between atoms: _281  and  _283
REMARK  107  A    between atoms: _283  and  _284
REMARK  108  A    between atoms: _287  and  _289
REMARK  109  A    between atoms: _289  and  _290
REMARK  110  A    between atoms: _293  and  _295
REMARK  111  A    between atoms: _295  and  _296
REMARK  112  A    between atoms: _295  and  _298
REMARK  113  A    between atoms: _298  and  _299
REMARK  114  A    between atoms: _309  and  _311
REMARK  115  A    between atoms: _311  and  _312
REMARK  116  A    between atoms: _311  and  _314
REMARK  117  A    between atoms: _314  and  _315
REMARK  118  A    between atoms: _317  and  _319
REMARK  119  A    between atoms: _319  and  _320
REMARK  120  A    between atoms: _319  and  _322
REMARK  121  A    between atoms: _322  and  _323
REMARK  122  A    between atoms: _328  and  _330
REMARK  123  A    between atoms: _330  and  _331
REMARK  124  A    between atoms: _330  and  _333
REMARK  125  A    between atoms: _333  and  _334
REMARK  126  A    between atoms: _340  and  _342
REMARK  127  A    between atoms: _342  and  _343
REMARK  128  A    between atoms: _342  and  _345
REMARK  129  A    between atoms: _345  and  _346
REMARK  130  A    between atoms: _346  and  _347
REMARK  131  A    between atoms: _350  and  _352
REMARK  132  A    between atoms: _352  and  _353
REMARK  133  A    between atoms: _352  and  _355
REMARK  134  A    between atoms: _355  and  _356
REMARK  135  A    between atoms: _366  and  _368
REMARK  136  A    between atoms: _368  and  _369
REMARK  137  A    between atoms: _368  and  _371
REMARK  138  A    between atoms: _371  and  _372
REMARK  139  A    between atoms: _372  and  _373
REMARK  140  A    between atoms: _376  and  _378
REMARK  141  A    between atoms: _378  and  _379
REMARK  142  A    between atoms: _378  and  _381
REMARK  143  A    between atoms: _381  and  _382
REMARK  144  A    between atoms: _382  and  _383
REMARK  145  A    between atoms: _383  and  _384
REMARK  146  A    between atoms: _384  and  _385
REMARK  147  A    between atoms: _389  and  _391
REMARK  148  A    between atoms: _391  and  _392
REMARK  149  A    between atoms: _391  and  _394
REMARK  150  A    between atoms: _394  and  _395
REMARK                            x       y       z     vdW  Elec       q    Type
REMARK                         _______ _______ _______ _____ _____    ______ ____
ROOT
ATOM      1  C   SER A   4       4.675  16.796   0.464  0.00  0.00    +0.243 C 
ATOM      2  N   TYR A   5       5.230  15.694   0.959  0.00  0.00    -0.297 N 
ATOM      3  H   TYR A   5       5.574  15.690   1.941  0.00  0.00    +0.150 HD
ATOM      4  O   SER A   4       4.197  16.838  -0.667  0.00  0.00    -0.273 OA
ENDROOT
BRANCH   2   5
ATOM      5  CA  TYR A   5       5.366  14.477   0.138  0.00  0.00    +0.153 C 
BRANCH   5   6
ATOM      6  C   TYR A   5       4.005  13.831  -0.202  0.00  0.00    +0.241 C 
ATOM      7  N   GLN A   6       3.018  14.000   0.666  0.00  0.00    -0.298 N 
ATOM      8  H   GLN A   6       3.162  14.585   1.514  0.00  0.00    +0.150 HD
ATOM      9  O   TYR A   5       3.848  13.188  -1.226  0.00  0.00    -0.273 OA
BRANCH   7  10
ATOM     10  CA  GLN A   6       1.735  13.365   0.428  0.00  0.00    +0.137 C 
BRANCH  10  11
ATOM     11  C   GLN A   6       0.906  14.017  -0.677  0.00  0.00    +0.227 C 
ATOM     12  O   GLN A   6       0.070  13.348  -1.268  0.00  0.00    -0.286 OA
ENDBRANCH  10  11
BRANCH  10  13
ATOM     13  CB  GLN A   6       0.921  13.239   1.703  0.00  0.00    +0.037 C 
BRANCH  13  14
ATOM     14  CG  GLN A   6       1.650  12.454   2.750  0.00  0.00    +0.087 C 
BRANCH  14  15
ATOM     15  CD  GLN A   6       0.854  12.298   3.990  0.00  0.00    +0.219 C 
ATOM     16  OE1 GLN A   6       1.017  13.045   4.948  0.00  0.00    -0.275 OA
ATOM     17  NE2 GLN A   6      -0.015  11.306   4.000  0.00  0.00    -0.329 N 
ATOM     18 HE21 GLN A   6      -0.596  11.132   4.845  0.00  0.00    +0.145 HD
ATOM     19 HE22 GLN A   6      -0.119  10.697   3.163  0.00  0.00    +0.145 HD
ENDBRANCH  14  15
ENDBRANCH  13  14
ENDBRANCH  10  13
ENDBRANCH   7  10
ENDBRANCH   5   6
BRANCH   5  20
ATOM     20  CB  TYR A   5       6.309  13.435   0.805  0.00  0.00    +0.055 C 
BRANCH  20  21
ATOM     21  CG  TYR A   5       6.735  12.372  -0.172  0.00  0.00    -0.020 A 
ATOM     22  CD2 TYR A   5       6.130  11.115  -0.177  0.00  0.00    -0.001 A 
ATOM     23  CE2 TYR A   5       6.498  10.129  -1.114  0.00  0.00    +0.036 A 
ATOM     24  CZ  TYR A   5       7.488  10.412  -2.041  0.00  0.00    +0.134 A 
ATOM     25  CE1 TYR A   5       8.074  11.665  -2.089  0.00  0.00    +0.036 A 
ATOM     26  CD1 TYR A   5       7.713  12.636  -1.133  0.00  0.00    -0.001 A 
BRANCH  24  27
ATOM     27  OH  TYR A   5       7.847   9.452  -2.976  0.00  0.00    -0.506 OA
ATOM     28  HH  TYR A   5       8.562   9.812  -3.558  0.00  0.00    +0.292 HD
ENDBRANCH  24  27
ENDBRANCH  20  21
ENDBRANCH   5  20
ENDBRANCH   2   5
BRANCH   1  29
ATOM     29  CA  SER A   4       4.622  18.024   1.375  0.00  0.00    +0.178 C 
BRANCH  29  31
ATOM     30  C   ALA A   3       2.705  17.223   2.755  0.00  0.00    +0.241 C 
ATOM     31  N   SER A   4       3.898  17.811   2.645  0.00  0.00    -0.295 N 
ATOM     32  H   SER A   4       4.352  18.144   3.519  0.00  0.00    +0.150 HD
ATOM     33  O   ALA A   3       2.125  16.676   1.821  0.00  0.00    -0.273 OA
BRANCH  30  34
ATOM     34  CA  ALA A   3       2.077  17.249   4.150  0.00  0.00    +0.149 C 
ATOM     35  CB  ALA A   3       2.452  16.031   4.934  0.00  0.00    +0.031 C 
BRANCH  34  38
ATOM     36  C   THR A   2      -0.102  18.125   4.881  0.00  0.00    +0.243 C 
ATOM     37  O   THR A   2       0.364  18.618   5.923  0.00  0.00    -0.273 OA
ATOM     38  N   ALA A   3       0.621  17.375   4.036  0.00  0.00    -0.297 N 
ATOM     39  H   ALA A   3       0.131  16.865   3.273  0.00  0.00    +0.150 HD
BRANCH  36  40
ATOM     40  CA  THR A   2      -1.557  18.366   4.502  0.00  0.00    +0.176 C 
BRANCH  40  43
ATOM     41  C   ALA A   1      -3.407  19.011   6.009  0.00  0.00    +0.238 C 
ATOM     42  O   ALA A   1      -4.183  18.133   5.595  0.00  0.00    -0.274 OA
ATOM     43  N   THR A   2      -2.186  19.224   5.506  0.00  0.00    -0.295 N 
ATOM     44  H   THR A   2      -1.652  20.048   5.849  0.00  0.00    +0.150 HD
BRANCH  41  45
ATOM     45  CA  ALA A   1      -3.821  19.937   7.163  0.00  0.00    +0.145 C 
ATOM     46  CB  ALA A   1      -3.453  19.312   8.509  0.00  0.00    +0.028 C 
BRANCH  45  47
ATOM     47  N   ALA A   1      -5.246  20.256   7.133  0.00  0.00    -0.238 NA
ATOM     48  H   ALA A   1      -5.940  19.490   7.015  0.00  0.00    +0.142 HD
ENDBRANCH  45  47
ENDBRANCH  41  45
ENDBRANCH  40  43
BRANCH  40  49
ATOM     49  CB  THR A   2      -1.612  19.024   3.114  0.00  0.00    +0.137 C 
ATOM     50  CG2 THR A   2      -3.069  19.156   2.591  0.00  0.00    +0.034 C 
BRANCH  49  51
ATOM     51  OG1 THR A   2      -1.023  20.330   3.170  0.00  0.00    -0.382 OA
ATOM     52  HG1 THR A   2      -1.062  20.747   2.273  0.00  0.00    +0.210 HD
ENDBRANCH  49  51
ENDBRANCH  40  49
ENDBRANCH  36  40
ENDBRANCH  34  38
ENDBRANCH  30  34
ENDBRANCH  29  31
BRANCH  29  53
ATOM     53  CB  SER A   4       6.036  18.539   1.677  0.00  0.00    +0.166 C 
BRANCH  53  54
ATOM     54  OG  SER A   4       6.642  17.747   2.703  0.00  0.00    -0.380 OA
ATOM     55  H   SER A   4       6.697  16.805   2.402  0.00  0.00    +0.211 HD
ENDBRANCH  53  54
ENDBRANCH  29  53
ENDBRANCH   1  29
TORSDOF 22
REMARK  Name = ../refined-set-2016/1w3j/1w3j_pocket.pdb
REMARK  150 active torsions:
REMARK  status: ('A' for Active; 'I' for Inactive)
REMARK    1  A    between atoms: _1  and  _3
REMARK    2  A    between atoms: _3  and  _4
REMARK    3  A    between atoms: _7  and  _9
REMARK    4  A    between atoms: _9  and  _10
REMARK    5  A    between atoms: _9  and  _12
REMARK    6  A    between atoms: _12  and  _13
REMARK    7  A    between atoms: _16  and  _18
REMARK    8  A    between atoms: _18  and  _19
REMARK    9  A    between atoms: _22  and  _24
REMARK   10  A    between atoms: _24  and  _25
REMARK   11  A    between atoms: _24  and  _27
REMARK   12  A    between atoms: _27  and  _28
REMARK   13  A    between atoms: _30  and  _32
REMARK   14  A    between atoms: _32  and  _33
REMARK   15  A    between atoms: _32  and  _35
REMARK   16  A    between atoms: _35  and  _36
REMARK   17  A    between atoms: _41  and  _42
REMARK   18  A    between atoms: _44  and  _46
REMARK   19  A    between atoms: _46  and  _47
REMARK   20  A    between atoms: _46  and  _49
REMARK   21  A    between atoms: _49  and  _50
REMARK   22  A    between atoms: _50  and  _51
REMARK   23  A    between atoms: _56  and  _58
REMARK   24  A    between atoms: _58  and  _59
REMARK   25  A    between atoms: _58  and  _61
REMARK   26  A    between atoms: _61  and  _62
REMARK   27  A    between atoms: _62  and  _63
REMARK   28  A    between atoms: _63  and  _64
REMARK   29  A    between atoms: _73  and  _75
REMARK   30  A    between atoms: _75  and  _76
REMARK   31  A    between atoms: _75  and  _78
REMARK   32  A    between atoms: _78  and  _79
REMARK   33  A    between atoms: _84  and  _86
REMARK   34  A    between atoms: _86  and  _87
REMARK   35  A    between atoms: _86  and  _89
REMARK   36  A    between atoms: _89  and  _90
REMARK   37  A    between atoms: _100  and  _102
REMARK   38  A    between atoms: _102  and  _103
REMARK   39  A    between atoms: _102  and  _105
REMARK   40  A    between atoms: _105  and  _106
REMARK   41  A    between atoms: _111  and  _113
REMARK   42  A    between atoms: _113  and  _114
REMARK   43  A    between atoms: _113  and  _116
REMARK   44  A    between atoms: _116  and  _117
REMARK   45  A    between atoms: _117  and  _118
REMARK   46  A    between atoms: _121  and  _123
REMARK   47  A    between atoms: _123  and  _124
REMARK   48  A    between atoms: _123  and  _126
REMARK   49  A    between atoms: _129  and  _131
REMARK   50  A    between atoms: _131  and  _132
REMARK   51  A    between atoms: _131  and  _134
REMARK   52  A    between atoms: _134  and  _135
REMARK   53  A    between atoms: _140  and  _142
REMARK   54  A    between atoms: _142  and  _143
REMARK   55  A    between atoms: _142  and  _145
REMARK   56  A    between atoms: _148  and  _150
REMARK   57  A    between atoms: _150  and  _151
REMARK   58  A    between atoms: _150  and  _153
REMARK   59  A    between atoms: _153  and  _154
REMARK   60  A    between atoms: _160  and  _162
REMARK   61  A    between atoms: _162  and  _163
REMARK   62  A    between atoms: _162  and  _165
REMARK   63  A    between atoms: _165  and  _166
REMARK   64  A    between atoms: _171  and  _173
REMARK   65  A    between atoms: _173  and  _174
REMARK   66  A    between atoms: _173  and  _176
REMARK   67  A    between atoms: _176  and  _177
REMARK   68  A    between atoms: _182  and  _184
REMARK   69  A    between atoms: _184  and  _185
REMARK   70  A    between atoms: _184  and  _187
REMARK   71  A    between atoms: _187  and  _188
REMARK   72  A    between atoms: _193  and  _195
REMARK   73  A    between atoms: _195  and  _196
REMARK   74  A    between atoms: _195  and  _198
REMARK   75  A    between atoms: _198  and  _199
REMARK   76  A    between atoms: _204  and  _205
REMARK   77  A    between atoms: _207  and  _209
REMARK   78  A    between atoms: _209  and  _210
REMARK   79  A    between atoms: _209  and  _212
REMARK   80  A    between atoms: _212  and  _213
REMARK   81  A    between atoms: _218  and  _219
REMARK   82  A    between atoms: _221  and  _223
REMARK   83  A    between atoms: _223  and  _224
REMARK   84  A    between atoms: _223  and  _226
REMARK   85  A    between atoms: _226  and  _227
REMARK   86  A    between atoms: _227  and  _228
REMARK   87  A    between atoms: _230  and  _232
REMARK   88  A    between atoms: _232  and  _233
REMARK   89  A    between atoms: _232  and  _235
REMARK   90  A    between atoms: _235  and  _236
REMARK   91  A    between atoms: _246  and  _248
REMARK   92  A    between atoms: _248  and  _249
REMARK   93  A    between atoms: _248  and  _251
REMARK   94  A    between atoms: _251  and  _252
REMARK   95  A    between atoms: _255  and  _257
REMARK   96  A    between atoms: _257  and  _258
REMARK   97  A    between atoms: _257  and  _260
REMARK   98  A    between atoms: _260  and  _261
REMARK   99  A    between atoms: _261  and  _262
REMARK  100  A    between atoms: _265  and  _267
REMARK  101  A    between atoms: _267  and  _268
REMARK  102  A    between atoms: _267  and  _270
REMARK  103  A    between atoms: _270  and  _271
REMARK  104  A    between atoms: _276  and  _278
REMARK  105  A    between atoms: _278  and  _279
REMARK  106  A    between atoms: _281  and  _283
REMARK  107  A    between atoms: _283  and  _284
REMARK  108  A    between atoms: _287  and  _289
REMARK  109  A    between atoms: _289  and  _290
REMARK  110  A    between atoms: _293  and  _295
REMARK  111  A    between atoms: _295  and  _296
REMARK  112  A    between atoms: _295  and  _298
REMARK  113  A    between atoms: _298  and  _299
REMARK  114  A    between atoms: _309  and  _311
REMARK  115  A    between atoms: _311  and  _312
REMARK  116  A    between atoms: _311  and  _314
REMARK  117  A    between atoms: _314  and  _315
REMARK  118  A    between atoms: _317  and  _319
REMARK  119  A    between atoms: _319  and  _320
REMARK  120  A    between atoms: _319  and  _322
REMARK  121  A    between atoms: _322  and  _323
REMARK  122  A    between atoms: _328  and  _330
REMARK  123  A    between atoms: _330  and  _331
REMARK  124  A    between atoms: _330  and  _333
REMARK  125  A    between atoms: _333  and  _334
REMARK  126  A    between atoms: _340  and  _342
REMARK  127  A    between atoms: _342  and  _343
REMARK  128  A    between atoms: _342  and  _345
REMARK  129  A    between atoms: _345  and  _346
REMARK  130  A    between atoms: _346  and  _347
REMARK  131  A    between atoms: _350  and  _352
REMARK  132  A    between atoms: _352  and  _353
REMARK  133  A    between atoms: _352  and  _355
REMARK  134  A    between atoms: _355  and  _356
REMARK  135  A    between atoms: _366  and  _368
REMARK  136  A    between atoms: _368  and  _369
REMARK  137  A    between atoms: _368  and  _371
REMARK  138  A    between atoms: _371  and  _372
REMARK  139  A    between atoms: _372  and  _373
REMARK  140  A    between atoms: _376  and  _378
REMARK  141  A    between atoms: _378  and  _379
REMARK  142  A    between atoms: _378  and  _381
REMARK  143  A    between atoms: _381  and  _382
REMARK  144  A    between atoms: _382  and  _383
REMARK  145  A    between atoms: _383  and  _384
REMARK  146  A    between atoms: _384  and  _385
REMARK  147  A    between atoms: _389  and  _391
REMARK  148  A    between atoms: _391  and  _392
REMARK  149  A    between atoms: _391  and  _394
REMARK  150  A    between atoms: _394  and  _395
REMARK                            x       y       z     vdW  Elec       q    Type
REMARK                         _______ _______ _______ _____ _____    ______ ____
ROOT
ATOM      1  NE  ARG A   1       0.604  20.006  11.255  0.00  0.00    -0.265 N 
ATOM      2  HE  ARG A   1       1.503  20.520  11.347  0.00  0.00    +0.259 HD
ATOM      3  CZ  ARG A   1       0.659  18.674  11.343  0.00  0.00    +0.342 C 
ATOM      4  NH2 ARG A   1       1.837  18.086  11.516  0.00  0.00    -0.292 N 
ATOM      5 HH21 ARG A   1       1.896  17.050  11.586  0.00  0.00    +0.255 HD
ATOM      6 HH22 ARG A   1       2.701  18.661  11.581  0.00  0.00    +0.255 HD
ATOM      7  NH1 ARG A   1      -0.443  17.918  11.296  0.00  0.00    -0.292 N 
ATOM      8 HH11 ARG A   1      -0.367  16.883  11.367  0.00  0.00    +0.255 HD
ATOM      9 HH12 ARG A   1      -1.376  18.365  11.188  0.00  0.00    +0.255 HD
ENDROOT
BRANCH   1  10
ATOM     10  CD  ARG A   1      -0.601  20.813  11.041  0.00  0.00    +0.174 C 
BRANCH  10  11
ATOM     11  CG  ARG A   1      -0.376  21.789   9.909  0.00  0.00    +0.045 C 
BRANCH  11  12
ATOM     12  CB  ARG A   1      -1.644  22.473   9.409  0.00  0.00    +0.029 C 
BRANCH  12  13
ATOM     13  CA  ARG A   1      -1.355  23.426   8.229  0.00  0.00    +0.133 C 
BRANCH  13  14
ATOM     14  N   ARG A   1      -2.569  24.033   7.743  0.00  0.00    -0.239 NA
ATOM     15  H   ARG A   1      -3.440  23.467   7.703  0.00  0.00    +0.142 HD
ENDBRANCH  13  14
BRANCH  13  16
ATOM     16  C   ARG A   1      -0.735  22.669   7.054  0.00  0.00    +0.224 C 
ATOM     17  O   ARG A   1      -1.330  21.722   6.548  0.00  0.00    -0.287 OA
ENDBRANCH  13  16
ENDBRANCH  12  13
ENDBRANCH  11  12
ENDBRANCH  10  11
ENDBRANCH   1  10
TORSDOF 6
REMARK  Name = ../refined-set-2016/1w3j/1w3j_pocket.pdb
REMARK  150 active torsions:
REMARK  status: ('A' for Active; 'I' for Inactive)
REMARK    1  A    between atoms: _1  and  _3
REMARK    2  A    between atoms: _3  and  _4
REMARK    3  A    between atoms: _7  and  _9
REMARK    4  A    between atoms: _9  and  _10
REMARK    5  A    between atoms: _9  and  _12
REMARK    6  A    between atoms: _12  and  _13
REMARK    7  A    between atoms: _16  and  _18
REMARK    8  A    between atoms: _18  and  _19
REMARK    9  A    between atoms: _22  and  _24
REMARK   10  A    between atoms: _24  and  _25
REMARK   11  A    between atoms: _24  and  _27
REMARK   12  A    between atoms: _27  and  _28
REMARK   13  A    between atoms: _30  and  _32
REMARK   14  A    between atoms: _32  and  _33
REMARK   15  A    between atoms: _32  and  _35
REMARK   16  A    between atoms: _35  and  _36
REMARK   17  A    between atoms: _41  and  _42
REMARK   18  A    between atoms: _44  and  _46
REMARK   19  A    between atoms: _46  and  _47
REMARK   20  A    between atoms: _46  and  _49
REMARK   21  A    between atoms: _49  and  _50
REMARK   22  A    between atoms: _50  and  _51
REMARK   23  A    between atoms: _56  and  _58
REMARK   24  A    between atoms: _58  and  _59
REMARK   25  A    between atoms: _58  and  _61
REMARK   26  A    between atoms: _61  and  _62
REMARK   27  A    between atoms: _62  and  _63
REMARK   28  A    between atoms: _63  and  _64
REMARK   29  A    between atoms: _73  and  _75
REMARK   30  A    between atoms: _75  and  _76
REMARK   31  A    between atoms: _75  and  _78
REMARK   32  A    between atoms: _78  and  _79
REMARK   33  A    between atoms: _84  and  _86
REMARK   34  A    between atoms: _86  and  _87
REMARK   35  A    between atoms: _86  and  _89
REMARK   36  A    between atoms: _89  and  _90
REMARK   37  A    between atoms: _100  and  _102
REMARK   38  A    between atoms: _102  and  _103
REMARK   39  A    between atoms: _102  and  _105
REMARK   40  A    between atoms: _105  and  _106
REMARK   41  A    between atoms: _111  and  _113
REMARK   42  A    between atoms: _113  and  _114
REMARK   43  A    between atoms: _113  and  _116
REMARK   44  A    between atoms: _116  and  _117
REMARK   45  A    between atoms: _117  and  _118
REMARK   46  A    between atoms: _121  and  _123
REMARK   47  A    between atoms: _123  and  _124
REMARK   48  A    between atoms: _123  and  _126
REMARK   49  A    between atoms: _129  and  _131
REMARK   50  A    between atoms: _131  and  _132
REMARK   51  A    between atoms: _131  and  _134
REMARK   52  A    between atoms: _134  and  _135
REMARK   53  A    between atoms: _140  and  _142
REMARK   54  A    between atoms: _142  and  _143
REMARK   55  A    between atoms: _142  and  _145
REMARK   56  A    between atoms: _148  and  _150
REMARK   57  A    between atoms: _150  and  _151
REMARK   58  A    between atoms: _150  and  _153
REMARK   59  A    between atoms: _153  and  _154
REMARK   60  A    between atoms: _160  and  _162
REMARK   61  A    between atoms: _162  and  _163
REMARK   62  A    between atoms: _162  and  _165
REMARK   63  A    between atoms: _165  and  _166
REMARK   64  A    between atoms: _171  and  _173
REMARK   65  A    between atoms: _173  and  _174
REMARK   66  A    between atoms: _173  and  _176
REMARK   67  A    between atoms: _176  and  _177
REMARK   68  A    between atoms: _182  and  _184
REMARK   69  A    between atoms: _184  and  _185
REMARK   70  A    between atoms: _184  and  _187
REMARK   71  A    between atoms: _187  and  _188
REMARK   72  A    between atoms: _193  and  _195
REMARK   73  A    between atoms: _195  and  _196
REMARK   74  A    between atoms: _195  and  _198
REMARK   75  A    between atoms: _198  and  _199
REMARK   76  A    between atoms: _204  and  _205
REMARK   77  A    between atoms: _207  and  _209
REMARK   78  A    between atoms: _209  and  _210
REMARK   79  A    between atoms: _209  and  _212
REMARK   80  A    between atoms: _212  and  _213
REMARK   81  A    between atoms: _218  and  _219
REMARK   82  A    between atoms: _221  and  _223
REMARK   83  A    between atoms: _223  and  _224
REMARK   84  A    between atoms: _223  and  _226
REMARK   85  A    between atoms: _226  and  _227
REMARK   86  A    between atoms: _227  and  _228
REMARK   87  A    between atoms: _230  and  _232
REMARK   88  A    between atoms: _232  and  _233
REMARK   89  A    between atoms: _232  and  _235
REMARK   90  A    between atoms: _235  and  _236
REMARK   91  A    between atoms: _246  and  _248
REMARK   92  A    between atoms: _248  and  _249
REMARK   93  A    between atoms: _248  and  _251
REMARK   94  A    between atoms: _251  and  _252
REMARK   95  A    between atoms: _255  and  _257
REMARK   96  A    between atoms: _257  and  _258
REMARK   97  A    between atoms: _257  and  _260
REMARK   98  A    between atoms: _260  and  _261
REMARK   99  A    between atoms: _261  and  _262
REMARK  100  A    between atoms: _265  and  _267
REMARK  101  A    between atoms: _267  and  _268
REMARK  102  A    between atoms: _267  and  _270
REMARK  103  A    between atoms: _270  and  _271
REMARK  104  A    between atoms: _276  and  _278
REMARK  105  A    between atoms: _278  and  _279
REMARK  106  A    between atoms: _281  and  _283
REMARK  107  A    between atoms: _283  and  _284
REMARK  108  A    between atoms: _287  and  _289
REMARK  109  A    between atoms: _289  and  _290
REMARK  110  A    between atoms: _293  and  _295
REMARK  111  A    between atoms: _295  and  _296
REMARK  112  A    between atoms: _295  and  _298
REMARK  113  A    between atoms: _298  and  _299
REMARK  114  A    between atoms: _309  and  _311
REMARK  115  A    between atoms: _311  and  _312
REMARK  116  A    between atoms: _311  and  _314
REMARK  117  A    between atoms: _314  and  _315
REMARK  118  A    between atoms: _317  and  _319
REMARK  119  A    between atoms: _319  and  _320
REMARK  120  A    between atoms: _319  and  _322
REMARK  121  A    between atoms: _322  and  _323
REMARK  122  A    between atoms: _328  and  _330
REMARK  123  A    between atoms: _330  and  _331
REMARK  124  A    between atoms: _330  and  _333
REMARK  125  A    between atoms: _333  and  _334
REMARK  126  A    between atoms: _340  and  _342
REMARK  127  A    between atoms: _342  and  _343
REMARK  128  A    between atoms: _342  and  _345
REMARK  129  A    between atoms: _345  and  _346
REMARK  130  A    between atoms: _346  and  _347
REMARK  131  A    between atoms: _350  and  _352
REMARK  132  A    between atoms: _352  and  _353
REMARK  133  A    between atoms: _352  and  _355
REMARK  134  A    between atoms: _355  and  _356
REMARK  135  A    between atoms: _366  and  _368
REMARK  136  A    between atoms: _368  and  _369
REMARK  137  A    between atoms: _368  and  _371
REMARK  138  A    between atoms: _371  and  _372
REMARK  139  A    between atoms: _372  and  _373
REMARK  140  A    between atoms: _376  and  _378
REMARK  141  A    between atoms: _378  and  _379
REMARK  142  A    between atoms: _378  and  _381
REMARK  143  A    between atoms: _381  and  _382
REMARK  144  A    between atoms: _382  and  _383
REMARK  145  A    between atoms: _383  and  _384
REMARK  146  A    between atoms: _384  and  _385
REMARK  147  A    between atoms: _389  and  _391
REMARK  148  A    between atoms: _391  and  _392
REMARK  149  A    between atoms: _391  and  _394
REMARK  150  A    between atoms: _394  and  _395
REMARK                            x       y       z     vdW  Elec       q    Type
REMARK                         _______ _______ _______ _____ _____    ______ ____
ROOT
ATOM      1  CA  TRP A   2       9.079  12.912   7.294  0.00  0.00    +0.141 C 
ENDROOT
BRANCH   1   3
ATOM      2  C   HIS A   1       7.390  14.742   7.267  0.00  0.00    +0.239 C 
ATOM      3  N   TRP A   2       8.581  14.241   7.656  0.00  0.00    -0.298 N 
ATOM      4  H   TRP A   2       9.187  14.839   8.254  0.00  0.00    +0.150 HD
ATOM      5  O   HIS A   1       6.758  14.350   6.295  0.00  0.00    -0.274 OA
BRANCH   2   6
ATOM      6  CA  HIS A   1       6.850  15.899   8.124  0.00  0.00    +0.151 C 
BRANCH   6   7
ATOM      7  N   HIS A   1       7.897  16.916   8.194  0.00  0.00    -0.238 NA
ATOM      8  H   HIS A   1       8.267  17.338   7.319  0.00  0.00    +0.142 HD
ENDBRANCH   6   7
BRANCH   6   9
ATOM      9  CB  HIS A   1       5.567  16.483   7.544  0.00  0.00    +0.074 C 
BRANCH   9  10
ATOM     10  CG  HIS A   1       4.323  15.711   7.879  0.00  0.00    +0.082 A 
ATOM     11  ND1 HIS A   1       3.217  16.307   8.451  0.00  0.00    -0.227 NA
ATOM     12  CE1 HIS A   1       2.255  15.407   8.588  0.00  0.00    +0.199 A 
ATOM     13  NE2 HIS A   1       2.693  14.248   8.117  0.00  0.00    -0.221 NA
ATOM     14  CD2 HIS A   1       3.979  14.418   7.654  0.00  0.00    +0.115 A 
ENDBRANCH   9  10
ENDBRANCH   6   9
ENDBRANCH   2   6
ENDBRANCH   1   3
BRANCH   1  15
ATOM     15  C   TRP A   2       9.940  12.810   6.045  0.00  0.00    +0.227 C 
ATOM     16  O   TRP A   2      10.591  11.787   5.858  0.00  0.00    -0.286 OA
ENDBRANCH   1  15
BRANCH   1  17
ATOM     17  CB  TRP A   2       7.943  11.891   7.165  0.00  0.00    +0.056 C 
BRANCH  17  18
ATOM     18  CG  TRP A   2       7.067  11.764   8.378  0.00  0.00    -0.002 A 
ATOM     19  CD1 TRP A   2       7.119  12.495   9.524  0.00  0.00    +0.068 A 
ATOM     20  NE1 TRP A   2       6.092  12.090  10.391  0.00  0.00    -0.352 N 
ATOM     21  HE1 TRP A   2       5.899  12.486  11.333  0.00  0.00    +0.166 HD
ATOM     22  CE2 TRP A   2       5.388  11.085   9.786  0.00  0.00    +0.056 A 
ATOM     23  CZ2 TRP A   2       4.264  10.376  10.228  0.00  0.00    +0.017 A 
ATOM     24  CH2 TRP A   2       3.734   9.427   9.366  0.00  0.00    +0.001 A 
ATOM     25  CZ3 TRP A   2       4.294   9.183   8.128  0.00  0.00    +0.000 A 
ATOM     26  CE3 TRP A   2       5.398   9.901   7.677  0.00  0.00    +0.001 A 
ATOM     27  CD2 TRP A   2       5.956  10.875   8.511  0.00  0.00    +0.013 A 
ENDBRANCH  17  18
ENDBRANCH   1  17
TORSDOF 8
REMARK  Name = ../refined-set-2016/1w3j/1w3j_pocket.pdb
REMARK  150 active torsions:
REMARK  status: ('A' for Active; 'I' for Inactive)
REMARK    1  A    between atoms: _1  and  _3
REMARK    2  A    between atoms: _3  and  _4
REMARK    3  A    between atoms: _7  and  _9
REMARK    4  A    between atoms: _9  and  _10
REMARK    5  A    between atoms: _9  and  _12
REMARK    6  A    between atoms: _12  and  _13
REMARK    7  A    between atoms: _16  and  _18
REMARK    8  A    between atoms: _18  and  _19
REMARK    9  A    between atoms: _22  and  _24
REMARK   10  A    between atoms: _24  and  _25
REMARK   11  A    between atoms: _24  and  _27
REMARK   12  A    between atoms: _27  and  _28
REMARK   13  A    between atoms: _30  and  _32
REMARK   14  A    between atoms: _32  and  _33
REMARK   15  A    between atoms: _32  and  _35
REMARK   16  A    between atoms: _35  and  _36
REMARK   17  A    between atoms: _41  and  _42
REMARK   18  A    between atoms: _44  and  _46
REMARK   19  A    between atoms: _46  and  _47
REMARK   20  A    between atoms: _46  and  _49
REMARK   21  A    between atoms: _49  and  _50
REMARK   22  A    between atoms: _50  and  _51
REMARK   23  A    between atoms: _56  and  _58
REMARK   24  A    between atoms: _58  and  _59
REMARK   25  A    between atoms: _58  and  _61
REMARK   26  A    between atoms: _61  and  _62
REMARK   27  A    between atoms: _62  and  _63
REMARK   28  A    between atoms: _63  and  _64
REMARK   29  A    between atoms: _73  and  _75
REMARK   30  A    between atoms: _75  and  _76
REMARK   31  A    between atoms: _75  and  _78
REMARK   32  A    between atoms: _78  and  _79
REMARK   33  A    between atoms: _84  and  _86
REMARK   34  A    between atoms: _86  and  _87
REMARK   35  A    between atoms: _86  and  _89
REMARK   36  A    between atoms: _89  and  _90
REMARK   37  A    between atoms: _100  and  _102
REMARK   38  A    between atoms: _102  and  _103
REMARK   39  A    between atoms: _102  and  _105
REMARK   40  A    between atoms: _105  and  _106
REMARK   41  A    between atoms: _111  and  _113
REMARK   42  A    between atoms: _113  and  _114
REMARK   43  A    between atoms: _113  and  _116
REMARK   44  A    between atoms: _116  and  _117
REMARK   45  A    between atoms: _117  and  _118
REMARK   46  A    between atoms: _121  and  _123
REMARK   47  A    between atoms: _123  and  _124
REMARK   48  A    between atoms: _123  and  _126
REMARK   49  A    between atoms: _129  and  _131
REMARK   50  A    between atoms: _131  and  _132
REMARK   51  A    between atoms: _131  and  _134
REMARK   52  A    between atoms: _134  and  _135
REMARK   53  A    between atoms: _140  and  _142
REMARK   54  A    between atoms: _142  and  _143
REMARK   55  A    between atoms: _142  and  _145
REMARK   56  A    between atoms: _148  and  _150
REMARK   57  A    between atoms: _150  and  _151
REMARK   58  A    between atoms: _150  and  _153
REMARK   59  A    between atoms: _153  and  _154
REMARK   60  A    between atoms: _160  and  _162
REMARK   61  A    between atoms: _162  and  _163
REMARK   62  A    between atoms: _162  and  _165
REMARK   63  A    between atoms: _165  and  _166
REMARK   64  A    between atoms: _171  and  _173
REMARK   65  A    between atoms: _173  and  _174
REMARK   66  A    between atoms: _173  and  _176
REMARK   67  A    between atoms: _176  and  _177
REMARK   68  A    between atoms: _182  and  _184
REMARK   69  A    between atoms: _184  and  _185
REMARK   70  A    between atoms: _184  and  _187
REMARK   71  A    between atoms: _187  and  _188
REMARK   72  A    between atoms: _193  and  _195
REMARK   73  A    between atoms: _195  and  _196
REMARK   74  A    between atoms: _195  and  _198
REMARK   75  A    between atoms: _198  and  _199
REMARK   76  A    between atoms: _204  and  _205
REMARK   77  A    between atoms: _207  and  _209
REMARK   78  A    between atoms: _209  and  _210
REMARK   79  A    between atoms: _209  and  _212
REMARK   80  A    between atoms: _212  and  _213
REMARK   81  A    between atoms: _218  and  _219
REMARK   82  A    between atoms: _221  and  _223
REMARK   83  A    between atoms: _223  and  _224
REMARK   84  A    between atoms: _223  and  _226
REMARK   85  A    between atoms: _226  and  _227
REMARK   86  A    between atoms: _227  and  _228
REMARK   87  A    between atoms: _230  and  _232
REMARK   88  A    between atoms: _232  and  _233
REMARK   89  A    between atoms: _232  and  _235
REMARK   90  A    between atoms: _235  and  _236
REMARK   91  A    between atoms: _246  and  _248
REMARK   92  A    between atoms: _248  and  _249
REMARK   93  A    between atoms: _248  and  _251
REMARK   94  A    between atoms: _251  and  _252
REMARK   95  A    between atoms: _255  and  _257
REMARK   96  A    between atoms: _257  and  _258
REMARK   97  A    between atoms: _257  and  _260
REMARK   98  A    between atoms: _260  and  _261
REMARK   99  A    between atoms: _261  and  _262
REMARK  100  A    between atoms: _265  and  _267
REMARK  101  A    between atoms: _267  and  _268
REMARK  102  A    between atoms: _267  and  _270
REMARK  103  A    between atoms: _270  and  _271
REMARK  104  A    between atoms: _276  and  _278
REMARK  105  A    between atoms: _278  and  _279
REMARK  106  A    between atoms: _281  and  _283
REMARK  107  A    between atoms: _283  and  _284
REMARK  108  A    between atoms: _287  and  _289
REMARK  109  A    between atoms: _289  and  _290
REMARK  110  A    between atoms: _293  and  _295
REMARK  111  A    between atoms: _295  and  _296
REMARK  112  A    between atoms: _295  and  _298
REMARK  113  A    between atoms: _298  and  _299
REMARK  114  A    between atoms: _309  and  _311
REMARK  115  A    between atoms: _311  and  _312
REMARK  116  A    between atoms: _311  and  _314
REMARK  117  A    between atoms: _314  and  _315
REMARK  118  A    between atoms: _317  and  _319
REMARK  119  A    between atoms: _319  and  _320
REMARK  120  A    between atoms: _319  and  _322
REMARK  121  A    between atoms: _322  and  _323
REMARK  122  A    between atoms: _328  and  _330
REMARK  123  A    between atoms: _330  and  _331
REMARK  124  A    between atoms: _330  and  _333
REMARK  125  A    between atoms: _333  and  _334
REMARK  126  A    between atoms: _340  and  _342
REMARK  127  A    between atoms: _342  and  _343
REMARK  128  A    between atoms: _342  and  _345
REMARK  129  A    between atoms: _345  and  _346
REMARK  130  A    between atoms: _346  and  _347
REMARK  131  A    between atoms: _350  and  _352
REMARK  132  A    between atoms: _352  and  _353
REMARK  133  A    between atoms: _352  and  _355
REMARK  134  A    between atoms: _355  and  _356
REMARK  135  A    between atoms: _366  and  _368
REMARK  136  A    between atoms: _368  and  _369
REMARK  137  A    between atoms: _368  and  _371
REMARK  138  A    between atoms: _371  and  _372
REMARK  139  A    between atoms: _372  and  _373
REMARK  140  A    between atoms: _376  and  _378
REMARK  141  A    between atoms: _378  and  _379
REMARK  142  A    between atoms: _378  and  _381
REMARK  143  A    between atoms: _381  and  _382
REMARK  144  A    between atoms: _382  and  _383
REMARK  145  A    between atoms: _383  and  _384
REMARK  146  A    between atoms: _384  and  _385
REMARK  147  A    between atoms: _389  and  _391
REMARK  148  A    between atoms: _391  and  _392
REMARK  149  A    between atoms: _391  and  _394
REMARK  150  A    between atoms: _394  and  _395
REMARK                            x       y       z     vdW  Elec       q    Type
REMARK                         _______ _______ _______ _____ _____    ______ ____
ROOT
ATOM      1  C   ASN A   1       5.453  14.379  13.510  0.00  0.00    +0.239 C 
ATOM      2  N   GLU A   2       4.764  13.973  14.591  0.00  0.00    -0.298 N 
ATOM      3  H   GLU A   2       4.208  14.681  15.112  0.00  0.00    +0.150 HD
ATOM      4  O   ASN A   1       6.218  13.653  12.868  0.00  0.00    -0.274 OA
ENDROOT
BRANCH   1   5
ATOM      5  CA  ASN A   1       5.200  15.798  13.043  0.00  0.00    +0.154 C 
BRANCH   5   6
ATOM      6  N   ASN A   1       6.415  16.590  13.063  0.00  0.00    -0.238 NA
ATOM      7  H   ASN A   1       7.014  16.610  12.213  0.00  0.00    +0.142 HD
ENDBRANCH   5   6
BRANCH   5   8
ATOM      8  CB  ASN A   1       4.601  15.720  11.632  0.00  0.00    +0.111 C 
BRANCH   8   9
ATOM      9  CG  ASN A   1       3.335  14.861  11.596  0.00  0.00    +0.221 C 
ATOM     10  OD1 ASN A   1       2.276  15.293  12.058  0.00  0.00    -0.275 OA
ATOM     11  ND2 ASN A   1       3.456  13.624  11.096  0.00  0.00    -0.329 N 
ATOM     12 HD21 ASN A   1       2.636  12.984  11.087  0.00  0.00    +0.145 HD
ATOM     13 HD22 ASN A   1       4.370  13.303  10.717  0.00  0.00    +0.145 HD
ENDBRANCH   8   9
ENDBRANCH   5   8
ENDBRANCH   1   5
BRANCH   2  14
ATOM     14  CA  GLU A   2       4.750  12.589  15.079  0.00  0.00    +0.137 C 
BRANCH  14  15
ATOM     15  C   GLU A   2       6.142  11.949  15.166  0.00  0.00    +0.227 C 
ATOM     16  O   GLU A   2       6.403  10.955  14.473  0.00  0.00    -0.286 OA
ENDBRANCH  14  15
BRANCH  14  17
ATOM     17  CB  GLU A   2       3.809  11.699  14.233  0.00  0.00    +0.039 C 
BRANCH  17  18
ATOM     18  CG  GLU A   2       2.357  12.203  14.211  0.00  0.00    +0.116 C 
BRANCH  18  19
ATOM     19  CD  GLU A   2       1.452  11.454  13.208  0.00  0.00    +0.365 C 
ATOM     20  OE2 GLU A   2       0.209  11.591  13.308  0.00  0.00    -0.246 OA
ATOM     21  OE1 GLU A   2       1.974  10.755  12.309  0.00  0.00    -0.246 OA
ENDBRANCH  18  19
ENDBRANCH  17  18
ENDBRANCH  14  17
ENDBRANCH   2  14
TORSDOF 9
REMARK  Name = ../refined-set-2016/1w3j/1w3j_pocket.pdb
REMARK  150 active torsions:
REMARK  status: ('A' for Active; 'I' for Inactive)
REMARK    1  A    between atoms: _1  and  _3
REMARK    2  A    between atoms: _3  and  _4
REMARK    3  A    between atoms: _7  and  _9
REMARK    4  A    between atoms: _9  and  _10
REMARK    5  A    between atoms: _9  and  _12
REMARK    6  A    between atoms: _12  and  _13
REMARK    7  A    between atoms: _16  and  _18
REMARK    8  A    between atoms: _18  and  _19
REMARK    9  A    between atoms: _22  and  _24
REMARK   10  A    between atoms: _24  and  _25
REMARK   11  A    between atoms: _24  and  _27
REMARK   12  A    between atoms: _27  and  _28
REMARK   13  A    between atoms: _30  and  _32
REMARK   14  A    between atoms: _32  and  _33
REMARK   15  A    between atoms: _32  and  _35
REMARK   16  A    between atoms: _35  and  _36
REMARK   17  A    between atoms: _41  and  _42
REMARK   18  A    between atoms: _44  and  _46
REMARK   19  A    between atoms: _46  and  _47
REMARK   20  A    between atoms: _46  and  _49
REMARK   21  A    between atoms: _49  and  _50
REMARK   22  A    between atoms: _50  and  _51
REMARK   23  A    between atoms: _56  and  _58
REMARK   24  A    between atoms: _58  and  _59
REMARK   25  A    between atoms: _58  and  _61
REMARK   26  A    between atoms: _61  and  _62
REMARK   27  A    between atoms: _62  and  _63
REMARK   28  A    between atoms: _63  and  _64
REMARK   29  A    between atoms: _73  and  _75
REMARK   30  A    between atoms: _75  and  _76
REMARK   31  A    between atoms: _75  and  _78
REMARK   32  A    between atoms: _78  and  _79
REMARK   33  A    between atoms: _84  and  _86
REMARK   34  A    between atoms: _86  and  _87
REMARK   35  A    between atoms: _86  and  _89
REMARK   36  A    between atoms: _89  and  _90
REMARK   37  A    between atoms: _100  and  _102
REMARK   38  A    between atoms: _102  and  _103
REMARK   39  A    between atoms: _102  and  _105
REMARK   40  A    between atoms: _105  and  _106
REMARK   41  A    between atoms: _111  and  _113
REMARK   42  A    between atoms: _113  and  _114
REMARK   43  A    between atoms: _113  and  _116
REMARK   44  A    between atoms: _116  and  _117
REMARK   45  A    between atoms: _117  and  _118
REMARK   46  A    between atoms: _121  and  _123
REMARK   47  A    between atoms: _123  and  _124
REMARK   48  A    between atoms: _123  and  _126
REMARK   49  A    between atoms: _129  and  _131
REMARK   50  A    between atoms: _131  and  _132
REMARK   51  A    between atoms: _131  and  _134
REMARK   52  A    between atoms: _134  and  _135
REMARK   53  A    between atoms: _140  and  _142
REMARK   54  A    between atoms: _142  and  _143
REMARK   55  A    between atoms: _142  and  _145
REMARK   56  A    between atoms: _148  and  _150
REMARK   57  A    between atoms: _150  and  _151
REMARK   58  A    between atoms: _150  and  _153
REMARK   59  A    between atoms: _153  and  _154
REMARK   60  A    between atoms: _160  and  _162
REMARK   61  A    between atoms: _162  and  _163
REMARK   62  A    between atoms: _162  and  _165
REMARK   63  A    between atoms: _165  and  _166
REMARK   64  A    between atoms: _171  and  _173
REMARK   65  A    between atoms: _173  and  _174
REMARK   66  A    between atoms: _173  and  _176
REMARK   67  A    between atoms: _176  and  _177
REMARK   68  A    between atoms: _182  and  _184
REMARK   69  A    between atoms: _184  and  _185
REMARK   70  A    between atoms: _184  and  _187
REMARK   71  A    between atoms: _187  and  _188
REMARK   72  A    between atoms: _193  and  _195
REMARK   73  A    between atoms: _195  and  _196
REMARK   74  A    between atoms: _195  and  _198
REMARK   75  A    between atoms: _198  and  _199
REMARK   76  A    between atoms: _204  and  _205
REMARK   77  A    between atoms: _207  and  _209
REMARK   78  A    between atoms: _209  and  _210
REMARK   79  A    between atoms: _209  and  _212
REMARK   80  A    between atoms: _212  and  _213
REMARK   81  A    between atoms: _218  and  _219
REMARK   82  A    between atoms: _221  and  _223
REMARK   83  A    between atoms: _223  and  _224
REMARK   84  A    between atoms: _223  and  _226
REMARK   85  A    between atoms: _226  and  _227
REMARK   86  A    between atoms: _227  and  _228
REMARK   87  A    between atoms: _230  and  _232
REMARK   88  A    between atoms: _232  and  _233
REMARK   89  A    between atoms: _232  and  _235
REMARK   90  A    between atoms: _235  and  _236
REMARK   91  A    between atoms: _246  and  _248
REMARK   92  A    between atoms: _248  and  _249
REMARK   93  A    between atoms: _248  and  _251
REMARK   94  A    between atoms: _251  and  _252
REMARK   95  A    between atoms: _255  and  _257
REMARK   96  A    between atoms: _257  and  _258
REMARK   97  A    between atoms: _257  and  _260
REMARK   98  A    between atoms: _260  and  _261
REMARK   99  A    between atoms: _261  and  _262
REMARK  100  A    between atoms: _265  and  _267
REMARK  101  A    between atoms: _267  and  _268
REMARK  102  A    between atoms: _267  and  _270
REMARK  103  A    between atoms: _270  and  _271
REMARK  104  A    between atoms: _276  and  _278
REMARK  105  A    between atoms: _278  and  _279
REMARK  106  A    between atoms: _281  and  _283
REMARK  107  A    between atoms: _283  and  _284
REMARK  108  A    between atoms: _287  and  _289
REMARK  109  A    between atoms: _289  and  _290
REMARK  110  A    between atoms: _293  and  _295
REMARK  111  A    between atoms: _295  and  _296
REMARK  112  A    between atoms: _295  and  _298
REMARK  113  A    between atoms: _298  and  _299
REMARK  114  A    between atoms: _309  and  _311
REMARK  115  A    between atoms: _311  and  _312
REMARK  116  A    between atoms: _311  and  _314
REMARK  117  A    between atoms: _314  and  _315
REMARK  118  A    between atoms: _317  and  _319
REMARK  119  A    between atoms: _319  and  _320
REMARK  120  A    between atoms: _319  and  _322
REMARK  121  A    between atoms: _322  and  _323
REMARK  122  A    between atoms: _328  and  _330
REMARK  123  A    between atoms: _330  and  _331
REMARK  124  A    between atoms: _330  and  _333
REMARK  125  A    between atoms: _333  and  _334
REMARK  126  A    between atoms: _340  and  _342
REMARK  127  A    between atoms: _342  and  _343
REMARK  128  A    between atoms: _342  and  _345
REMARK  129  A    between atoms: _345  and  _346
REMARK  130  A    between atoms: _346  and  _347
REMARK  131  A    between atoms: _350  and  _352
REMARK  132  A    between atoms: _352  and  _353
REMARK  133  A    between atoms: _352  and  _355
REMARK  134  A    between atoms: _355  and  _356
REMARK  135  A    between atoms: _366  and  _368
REMARK  136  A    between atoms: _368  and  _369
REMARK  137  A    between atoms: _368  and  _371
REMARK  138  A    between atoms: _371  and  _372
REMARK  139  A    between atoms: _372  and  _373
REMARK  140  A    between atoms: _376  and  _378
REMARK  141  A    between atoms: _378  and  _379
REMARK  142  A    between atoms: _378  and  _381
REMARK  143  A    between atoms: _381  and  _382
REMARK  144  A    between atoms: _382  and  _383
REMARK  145  A    between atoms: _383  and  _384
REMARK  146  A    between atoms: _384  and  _385
REMARK  147  A    between atoms: _389  and  _391
REMARK  148  A    between atoms: _391  and  _392
REMARK  149  A    between atoms: _391  and  _394
REMARK  150  A    between atoms: _394  and  _395
REMARK                            x       y       z     vdW  Elec       q    Type
REMARK                         _______ _______ _______ _____ _____    ______ ____
ROOT
ATOM      1  CA  VAL A   1       6.221   7.333  14.069  0.00  0.00    +0.133 C 
ENDROOT
BRANCH   1   2
ATOM      2  CB  VAL A   1       5.113   7.931  13.153  0.00  0.00    +0.023 C 
ATOM      3  CG2 VAL A   1       3.766   7.932  13.884  0.00  0.00    +0.002 C 
ATOM      4  CG1 VAL A   1       4.998   7.118  11.885  0.00  0.00    +0.002 C 
ENDBRANCH   1   2
BRANCH   1   5
ATOM      5  N   VAL A   1       6.299   8.035  15.363  0.00  0.00    -0.239 NA
ATOM      6  H   VAL A   1       5.661   8.837  15.541  0.00  0.00    +0.142 HD
ENDBRANCH   1   5
BRANCH   1   7
ATOM      7  C   VAL A   1       7.583   7.361  13.364  0.00  0.00    +0.224 C 
ATOM      8  O   VAL A   1       8.068   6.322  12.930  0.00  0.00    -0.287 OA
ENDBRANCH   1   7
TORSDOF 3
REMARK  Name = ../refined-set-2016/1w3j/1w3j_pocket.pdb
REMARK  150 active torsions:
REMARK  status: ('A' for Active; 'I' for Inactive)
REMARK    1  A    between atoms: _1  and  _3
REMARK    2  A    between atoms: _3  and  _4
REMARK    3  A    between atoms: _7  and  _9
REMARK    4  A    between atoms: _9  and  _10
REMARK    5  A    between atoms: _9  and  _12
REMARK    6  A    between atoms: _12  and  _13
REMARK    7  A    between atoms: _16  and  _18
REMARK    8  A    between atoms: _18  and  _19
REMARK    9  A    between atoms: _22  and  _24
REMARK   10  A    between atoms: _24  and  _25
REMARK   11  A    between atoms: _24  and  _27
REMARK   12  A    between atoms: _27  and  _28
REMARK   13  A    between atoms: _30  and  _32
REMARK   14  A    between atoms: _32  and  _33
REMARK   15  A    between atoms: _32  and  _35
REMARK   16  A    between atoms: _35  and  _36
REMARK   17  A    between atoms: _41  and  _42
REMARK   18  A    between atoms: _44  and  _46
REMARK   19  A    between atoms: _46  and  _47
REMARK   20  A    between atoms: _46  and  _49
REMARK   21  A    between atoms: _49  and  _50
REMARK   22  A    between atoms: _50  and  _51
REMARK   23  A    between atoms: _56  and  _58
REMARK   24  A    between atoms: _58  and  _59
REMARK   25  A    between atoms: _58  and  _61
REMARK   26  A    between atoms: _61  and  _62
REMARK   27  A    between atoms: _62  and  _63
REMARK   28  A    between atoms: _63  and  _64
REMARK   29  A    between atoms: _73  and  _75
REMARK   30  A    between atoms: _75  and  _76
REMARK   31  A    between atoms: _75  and  _78
REMARK   32  A    between atoms: _78  and  _79
REMARK   33  A    between atoms: _84  and  _86
REMARK   34  A    between atoms: _86  and  _87
REMARK   35  A    between atoms: _86  and  _89
REMARK   36  A    between atoms: _89  and  _90
REMARK   37  A    between atoms: _100  and  _102
REMARK   38  A    between atoms: _102  and  _103
REMARK   39  A    between atoms: _102  and  _105
REMARK   40  A    between atoms: _105  and  _106
REMARK   41  A    between atoms: _111  and  _113
REMARK   42  A    between atoms: _113  and  _114
REMARK   43  A    between atoms: _113  and  _116
REMARK   44  A    between atoms: _116  and  _117
REMARK   45  A    between atoms: _117  and  _118
REMARK   46  A    between atoms: _121  and  _123
REMARK   47  A    between atoms: _123  and  _124
REMARK   48  A    between atoms: _123  and  _126
REMARK   49  A    between atoms: _129  and  _131
REMARK   50  A    between atoms: _131  and  _132
REMARK   51  A    between atoms: _131  and  _134
REMARK   52  A    between atoms: _134  and  _135
REMARK   53  A    between atoms: _140  and  _142
REMARK   54  A    between atoms: _142  and  _143
REMARK   55  A    between atoms: _142  and  _145
REMARK   56  A    between atoms: _148  and  _150
REMARK   57  A    between atoms: _150  and  _151
REMARK   58  A    between atoms: _150  and  _153
REMARK   59  A    between atoms: _153  and  _154
REMARK   60  A    between atoms: _160  and  _162
REMARK   61  A    between atoms: _162  and  _163
REMARK   62  A    between atoms: _162  and  _165
REMARK   63  A    between atoms: _165  and  _166
REMARK   64  A    between atoms: _171  and  _173
REMARK   65  A    between atoms: _173  and  _174
REMARK   66  A    between atoms: _173  and  _176
REMARK   67  A    between atoms: _176  and  _177
REMARK   68  A    between atoms: _182  and  _184
REMARK   69  A    between atoms: _184  and  _185
REMARK   70  A    between atoms: _184  and  _187
REMARK   71  A    between atoms: _187  and  _188
REMARK   72  A    between atoms: _193  and  _195
REMARK   73  A    between atoms: _195  and  _196
REMARK   74  A    between atoms: _195  and  _198
REMARK   75  A    between atoms: _198  and  _199
REMARK   76  A    between atoms: _204  and  _205
REMARK   77  A    between atoms: _207  and  _209
REMARK   78  A    between atoms: _209  and  _210
REMARK   79  A    between atoms: _209  and  _212
REMARK   80  A    between atoms: _212  and  _213
REMARK   81  A    between atoms: _218  and  _219
REMARK   82  A    between atoms: _221  and  _223
REMARK   83  A    between atoms: _223  and  _224
REMARK   84  A    between atoms: _223  and  _226
REMARK   85  A    between atoms: _226  and  _227
REMARK   86  A    between atoms: _227  and  _228
REMARK   87  A    between atoms: _230  and  _232
REMARK   88  A    between atoms: _232  and  _233
REMARK   89  A    between atoms: _232  and  _235
REMARK   90  A    between atoms: _235  and  _236
REMARK   91  A    between atoms: _246  and  _248
REMARK   92  A    between atoms: _248  and  _249
REMARK   93  A    between atoms: _248  and  _251
REMARK   94  A    between atoms: _251  and  _252
REMARK   95  A    between atoms: _255  and  _257
REMARK   96  A    between atoms: _257  and  _258
REMARK   97  A    between atoms: _257  and  _260
REMARK   98  A    between atoms: _260  and  _261
REMARK   99  A    between atoms: _261  and  _262
REMARK  100  A    between atoms: _265  and  _267
REMARK  101  A    between atoms: _267  and  _268
REMARK  102  A    between atoms: _267  and  _270
REMARK  103  A    between atoms: _270  and  _271
REMARK  104  A    between atoms: _276  and  _278
REMARK  105  A    between atoms: _278  and  _279
REMARK  106  A    between atoms: _281  and  _283
REMARK  107  A    between atoms: _283  and  _284
REMARK  108  A    between atoms: _287  and  _289
REMARK  109  A    between atoms: _289  and  _290
REMARK  110  A    between atoms: _293  and  _295
REMARK  111  A    between atoms: _295  and  _296
REMARK  112  A    between atoms: _295  and  _298
REMARK  113  A    between atoms: _298  and  _299
REMARK  114  A    between atoms: _309  and  _311
REMARK  115  A    between atoms: _311  and  _312
REMARK  116  A    between atoms: _311  and  _314
REMARK  117  A    between atoms: _314  and  _315
REMARK  118  A    between atoms: _317  and  _319
REMARK  119  A    between atoms: _319  and  _320
REMARK  120  A    between atoms: _319  and  _322
REMARK  121  A    between atoms: _322  and  _323
REMARK  122  A    between atoms: _328  and  _330
REMARK  123  A    between atoms: _330  and  _331
REMARK  124  A    between atoms: _330  and  _333
REMARK  125  A    between atoms: _333  and  _334
REMARK  126  A    between atoms: _340  and  _342
REMARK  127  A    between atoms: _342  and  _343
REMARK  128  A    between atoms: _342  and  _345
REMARK  129  A    between atoms: _345  and  _346
REMARK  130  A    between atoms: _346  and  _347
REMARK  131  A    between atoms: _350  and  _352
REMARK  132  A    between atoms: _352  and  _353
REMARK  133  A    between atoms: _352  and  _355
REMARK  134  A    between atoms: _355  and  _356
REMARK  135  A    between atoms: _366  and  _368
REMARK  136  A    between atoms: _368  and  _369
REMARK  137  A    between atoms: _368  and  _371
REMARK  138  A    between atoms: _371  and  _372
REMARK  139  A    between atoms: _372  and  _373
REMARK  140  A    between atoms: _376  and  _378
REMARK  141  A    between atoms: _378  and  _379
REMARK  142  A    between atoms: _378  and  _381
REMARK  143  A    between atoms: _381  and  _382
REMARK  144  A    between atoms: _382  and  _383
REMARK  145  A    between atoms: _383  and  _384
REMARK  146  A    between atoms: _384  and  _385
REMARK  147  A    between atoms: _389  and  _391
REMARK  148  A    between atoms: _391  and  _392
REMARK  149  A    between atoms: _391  and  _394
REMARK  150  A    between atoms: _394  and  _395
REMARK                            x       y       z     vdW  Elec       q    Type
REMARK                         _______ _______ _______ _____ _____    ______ ____
ROOT
ATOM      1  CB  HIS A   1       7.736   4.913   7.826  0.00  0.00    +0.072 C 
ENDROOT
BRANCH   1   2
ATOM      2  CG  HIS A   1       6.240   5.033   7.877  0.00  0.00    +0.082 A 
ATOM      3  ND1 HIS A   1       5.593   6.019   8.591  0.00  0.00    -0.227 NA
ATOM      4  CE1 HIS A   1       4.286   5.880   8.449  0.00  0.00    +0.199 A 
ATOM      5  NE2 HIS A   1       4.057   4.831   7.678  0.00  0.00    -0.221 NA
ATOM      6  CD2 HIS A   1       5.266   4.284   7.303  0.00  0.00    +0.115 A 
ENDBRANCH   1   2
BRANCH   1   7
ATOM      7  CA  HIS A   1       8.219   3.836   6.848  0.00  0.00    +0.139 C 
BRANCH   7   8
ATOM      8  N   HIS A   1       8.053   2.511   7.426  0.00  0.00    -0.239 NA
ATOM      9  H   HIS A   1       8.469   2.310   8.358  0.00  0.00    +0.142 HD
ENDBRANCH   7   8
BRANCH   7  10
ATOM     10  C   HIS A   1       9.696   4.064   6.556  0.00  0.00    +0.224 C 
ATOM     11  O   HIS A   1      10.553   3.417   7.141  0.00  0.00    -0.287 OA
ENDBRANCH   7  10
ENDBRANCH   1   7
TORSDOF 4
REMARK  Name = ../refined-set-2016/1w3j/1w3j_pocket.pdb
REMARK  150 active torsions:
REMARK  status: ('A' for Active; 'I' for Inactive)
REMARK    1  A    between atoms: _1  and  _3
REMARK    2  A    between atoms: _3  and  _4
REMARK    3  A    between atoms: _7  and  _9
REMARK    4  A    between atoms: _9  and  _10
REMARK    5  A    between atoms: _9  and  _12
REMARK    6  A    between atoms: _12  and  _13
REMARK    7  A    between atoms: _16  and  _18
REMARK    8  A    between atoms: _18  and  _19
REMARK    9  A    between atoms: _22  and  _24
REMARK   10  A    between atoms: _24  and  _25
REMARK   11  A    between atoms: _24  and  _27
REMARK   12  A    between atoms: _27  and  _28
REMARK   13  A    between atoms: _30  and  _32
REMARK   14  A    between atoms: _32  and  _33
REMARK   15  A    between atoms: _32  and  _35
REMARK   16  A    between atoms: _35  and  _36
REMARK   17  A    between atoms: _41  and  _42
REMARK   18  A    between atoms: _44  and  _46
REMARK   19  A    between atoms: _46  and  _47
REMARK   20  A    between atoms: _46  and  _49
REMARK   21  A    between atoms: _49  and  _50
REMARK   22  A    between atoms: _50  and  _51
REMARK   23  A    between atoms: _56  and  _58
REMARK   24  A    between atoms: _58  and  _59
REMARK   25  A    between atoms: _58  and  _61
REMARK   26  A    between atoms: _61  and  _62
REMARK   27  A    between atoms: _62  and  _63
REMARK   28  A    between atoms: _63  and  _64
REMARK   29  A    between atoms: _73  and  _75
REMARK   30  A    between atoms: _75  and  _76
REMARK   31  A    between atoms: _75  and  _78
REMARK   32  A    between atoms: _78  and  _79
REMARK   33  A    between atoms: _84  and  _86
REMARK   34  A    between atoms: _86  and  _87
REMARK   35  A    between atoms: _86  and  _89
REMARK   36  A    between atoms: _89  and  _90
REMARK   37  A    between atoms: _100  and  _102
REMARK   38  A    between atoms: _102  and  _103
REMARK   39  A    between atoms: _102  and  _105
REMARK   40  A    between atoms: _105  and  _106
REMARK   41  A    between atoms: _111  and  _113
REMARK   42  A    between atoms: _113  and  _114
REMARK   43  A    between atoms: _113  and  _116
REMARK   44  A    between atoms: _116  and  _117
REMARK   45  A    between atoms: _117  and  _118
REMARK   46  A    between atoms: _121  and  _123
REMARK   47  A    between atoms: _123  and  _124
REMARK   48  A    between atoms: _123  and  _126
REMARK   49  A    between atoms: _129  and  _131
REMARK   50  A    between atoms: _131  and  _132
REMARK   51  A    between atoms: _131  and  _134
REMARK   52  A    between atoms: _134  and  _135
REMARK   53  A    between atoms: _140  and  _142
REMARK   54  A    between atoms: _142  and  _143
REMARK   55  A    between atoms: _142  and  _145
REMARK   56  A    between atoms: _148  and  _150
REMARK   57  A    between atoms: _150  and  _151
REMARK   58  A    between atoms: _150  and  _153
REMARK   59  A    between atoms: _153  and  _154
REMARK   60  A    between atoms: _160  and  _162
REMARK   61  A    between atoms: _162  and  _163
REMARK   62  A    between atoms: _162  and  _165
REMARK   63  A    between atoms: _165  and  _166
REMARK   64  A    between atoms: _171  and  _173
REMARK   65  A    between atoms: _173  and  _174
REMARK   66  A    between atoms: _173  and  _176
REMARK   67  A    between atoms: _176  and  _177
REMARK   68  A    between atoms: _182  and  _184
REMARK   69  A    between atoms: _184  and  _185
REMARK   70  A    between atoms: _184  and  _187
REMARK   71  A    between atoms: _187  and  _188
REMARK   72  A    between atoms: _193  and  _195
REMARK   73  A    between atoms: _195  and  _196
REMARK   74  A    between atoms: _195  and  _198
REMARK   75  A    between atoms: _198  and  _199
REMARK   76  A    between atoms: _204  and  _205
REMARK   77  A    between atoms: _207  and  _209
REMARK   78  A    between atoms: _209  and  _210
REMARK   79  A    between atoms: _209  and  _212
REMARK   80  A    between atoms: _212  and  _213
REMARK   81  A    between atoms: _218  and  _219
REMARK   82  A    between atoms: _221  and  _223
REMARK   83  A    between atoms: _223  and  _224
REMARK   84  A    between atoms: _223  and  _226
REMARK   85  A    between atoms: _226  and  _227
REMARK   86  A    between atoms: _227  and  _228
REMARK   87  A    between atoms: _230  and  _232
REMARK   88  A    between atoms: _232  and  _233
REMARK   89  A    between atoms: _232  and  _235
REMARK   90  A    between atoms: _235  and  _236
REMARK   91  A    between atoms: _246  and  _248
REMARK   92  A    between atoms: _248  and  _249
REMARK   93  A    between atoms: _248  and  _251
REMARK   94  A    between atoms: _251  and  _252
REMARK   95  A    between atoms: _255  and  _257
REMARK   96  A    between atoms: _257  and  _258
REMARK   97  A    between atoms: _257  and  _260
REMARK   98  A    between atoms: _260  and  _261
REMARK   99  A    between atoms: _261  and  _262
REMARK  100  A    between atoms: _265  and  _267
REMARK  101  A    between atoms: _267  and  _268
REMARK  102  A    between atoms: _267  and  _270
REMARK  103  A    between atoms: _270  and  _271
REMARK  104  A    between atoms: _276  and  _278
REMARK  105  A    between atoms: _278  and  _279
REMARK  106  A    between atoms: _281  and  _283
REMARK  107  A    between atoms: _283  and  _284
REMARK  108  A    between atoms: _287  and  _289
REMARK  109  A    between atoms: _289  and  _290
REMARK  110  A    between atoms: _293  and  _295
REMARK  111  A    between atoms: _295  and  _296
REMARK  112  A    between atoms: _295  and  _298
REMARK  113  A    between atoms: _298  and  _299
REMARK  114  A    between atoms: _309  and  _311
REMARK  115  A    between atoms: _311  and  _312
REMARK  116  A    between atoms: _311  and  _314
REMARK  117  A    between atoms: _314  and  _315
REMARK  118  A    between atoms: _317  and  _319
REMARK  119  A    between atoms: _319  and  _320
REMARK  120  A    between atoms: _319  and  _322
REMARK  121  A    between atoms: _322  and  _323
REMARK  122  A    between atoms: _328  and  _330
REMARK  123  A    between atoms: _330  and  _331
REMARK  124  A    between atoms: _330  and  _333
REMARK  125  A    between atoms: _333  and  _334
REMARK  126  A    between atoms: _340  and  _342
REMARK  127  A    between atoms: _342  and  _343
REMARK  128  A    between atoms: _342  and  _345
REMARK  129  A    between atoms: _345  and  _346
REMARK  130  A    between atoms: _346  and  _347
REMARK  131  A    between atoms: _350  and  _352
REMARK  132  A    between atoms: _352  and  _353
REMARK  133  A    between atoms: _352  and  _355
REMARK  134  A    between atoms: _355  and  _356
REMARK  135  A    between atoms: _366  and  _368
REMARK  136  A    between atoms: _368  and  _369
REMARK  137  A    between atoms: _368  and  _371
REMARK  138  A    between atoms: _371  and  _372
REMARK  139  A    between atoms: _372  and  _373
REMARK  140  A    between atoms: _376  and  _378
REMARK  141  A    between atoms: _378  and  _379
REMARK  142  A    between atoms: _378  and  _381
REMARK  143  A    between atoms: _381  and  _382
REMARK  144  A    between atoms: _382  and  _383
REMARK  145  A    between atoms: _383  and  _384
REMARK  146  A    between atoms: _384  and  _385
REMARK  147  A    between atoms: _389  and  _391
REMARK  148  A    between atoms: _391  and  _392
REMARK  149  A    between atoms: _391  and  _394
REMARK  150  A    between atoms: _394  and  _395
REMARK                            x       y       z     vdW  Elec       q    Type
REMARK                         _______ _______ _______ _____ _____    ______ ____
ROOT
ATOM      1  C   PHE A   2       1.152  13.207  18.076  0.00  0.00    +0.241 C 
ATOM      2  O   PHE A   2       0.033  13.709  18.126  0.00  0.00    -0.273 OA
ATOM      3  N   ASN A   3       1.381  11.960  17.687  0.00  0.00    -0.297 N 
ATOM      4  H   ASN A   3       2.363  11.653  17.534  0.00  0.00    +0.150 HD
ENDROOT
BRANCH   1   5
ATOM      5  CA  PHE A   2       2.378  14.003  18.518  0.00  0.00    +0.153 C 
BRANCH   5   7
ATOM      6  C   VAL A   1       3.162  16.038  17.467  0.00  0.00    +0.238 C 
ATOM      7  N   PHE A   2       2.260  15.432  18.240  0.00  0.00    -0.297 N 
ATOM      8  H   PHE A   2       1.472  15.977  18.645  0.00  0.00    +0.150 HD
ATOM      9  O   VAL A   1       4.148  15.458  17.033  0.00  0.00    -0.274 OA
BRANCH   6  10
ATOM     10  CA  VAL A   1       2.921  17.502  17.115  0.00  0.00    +0.145 C 
BRANCH  10  11
ATOM     11  CB  VAL A   1       2.460  17.616  15.639  0.00  0.00    +0.025 C 
ATOM     12  CG2 VAL A   1       1.895  19.040  15.339  0.00  0.00    +0.002 C 
ATOM     13  CG1 VAL A   1       1.452  16.546  15.294  0.00  0.00    +0.002 C 
ENDBRANCH  10  11
BRANCH  10  14
ATOM     14  N   VAL A   1       4.117  18.295  17.327  0.00  0.00    -0.238 NA
ATOM     15  H   VAL A   1       4.950  18.115  16.730  0.00  0.00    +0.142 HD
ENDBRANCH  10  14
ENDBRANCH   6  10
ENDBRANCH   5   7
BRANCH   5  16
ATOM     16  CB  PHE A   2       2.617  13.765  20.009  0.00  0.00    +0.055 C 
BRANCH  16  17
ATOM     17  CG  PHE A   2       3.625  14.689  20.599  0.00  0.00    -0.020 A 
ATOM     18  CD2 PHE A   2       3.227  15.778  21.348  0.00  0.00    -0.004 A 
ATOM     19  CE2 PHE A   2       4.172  16.671  21.917  0.00  0.00    -0.000 A 
ATOM     20  CZ  PHE A   2       5.512  16.458  21.686  0.00  0.00    -0.000 A 
ATOM     21  CE1 PHE A   2       5.912  15.371  20.903  0.00  0.00    -0.000 A 
ATOM     22  CD1 PHE A   2       4.970  14.494  20.357  0.00  0.00    -0.004 A 
ENDBRANCH  16  17
ENDBRANCH   5  16
ENDBRANCH   1   5
BRANCH   3  23
ATOM     23  CA  ASN A   3       0.312  11.015  17.469  0.00  0.00    +0.158 C 
BRANCH  23  24
ATOM     24  C   ASN A   3      -0.168  10.485  18.818  0.00  0.00    +0.241 C 
ATOM     25  O   ASN A   3       0.620  10.359  19.785  0.00  0.00    -0.273 OA
ATOM     26  N   ASN A   4      -1.453  10.175  18.894  0.00  0.00    -0.298 N 
ATOM     27  H   ASN A   4      -2.082  10.357  18.086  0.00  0.00    +0.150 HD
BRANCH  26  28
ATOM     28  CA  ASN A   4      -1.986   9.576  20.116  0.00  0.00    +0.146 C 
BRANCH  28  29
ATOM     29  C   ASN A   4      -3.097   8.612  19.812  0.00  0.00    +0.227 C 
ATOM     30  O   ASN A   4      -3.891   8.853  18.909  0.00  0.00    -0.286 OA
ENDBRANCH  28  29
BRANCH  28  31
ATOM     31  CB  ASN A   4      -2.517  10.618  21.106  0.00  0.00    +0.112 C 
BRANCH  31  32
ATOM     32  CG  ASN A   4      -1.624  11.802  21.252  0.00  0.00    +0.222 C 
ATOM     33  OD1 ASN A   4      -0.858  11.878  22.197  0.00  0.00    -0.275 OA
ATOM     34  ND2 ASN A   4      -1.706  12.748  20.304  0.00  0.00    -0.329 N 
ATOM     35 HD21 ASN A   4      -1.100  13.591  20.357  0.00  0.00    +0.145 HD
ATOM     36 HD22 ASN A   4      -2.376  12.638  19.516  0.00  0.00    +0.145 HD
ENDBRANCH  31  32
ENDBRANCH  28  31
ENDBRANCH  26  28
ENDBRANCH  23  24
BRANCH  23  37
ATOM     37  CB  ASN A   3       0.771   9.827  16.571  0.00  0.00    +0.114 C 
BRANCH  37  38
ATOM     38  CG  ASN A   3       2.010   9.093  17.121  0.00  0.00    +0.222 C 
ATOM     39  ND2 ASN A   3       1.806   7.882  17.671  0.00  0.00    -0.329 N 
ATOM     40 HD21 ASN A   3       2.612   7.331  18.028  0.00  0.00    +0.145 HD
ATOM     41 HD22 ASN A   3       0.842   7.497  17.739  0.00  0.00    +0.145 HD
ATOM     42  OD1 ASN A   3       3.136   9.596  17.016  0.00  0.00    -0.275 OA
ENDBRANCH  37  38
ENDBRANCH  23  37
ENDBRANCH   3  23
TORSDOF 15
REMARK  Name = ../refined-set-2016/1w3j/1w3j_pocket.pdb
REMARK  150 active torsions:
REMARK  status: ('A' for Active; 'I' for Inactive)
REMARK    1  A    between atoms: _1  and  _3
REMARK    2  A    between atoms: _3  and  _4
REMARK    3  A    between atoms: _7  and  _9
REMARK    4  A    between atoms: _9  and  _10
REMARK    5  A    between atoms: _9  and  _12
REMARK    6  A    between atoms: _12  and  _13
REMARK    7  A    between atoms: _16  and  _18
REMARK    8  A    between atoms: _18  and  _19
REMARK    9  A    between atoms: _22  and  _24
REMARK   10  A    between atoms: _24  and  _25
REMARK   11  A    between atoms: _24  and  _27
REMARK   12  A    between atoms: _27  and  _28
REMARK   13  A    between atoms: _30  and  _32
REMARK   14  A    between atoms: _32  and  _33
REMARK   15  A    between atoms: _32  and  _35
REMARK   16  A    between atoms: _35  and  _36
REMARK   17  A    between atoms: _41  and  _42
REMARK   18  A    between atoms: _44  and  _46
REMARK   19  A    between atoms: _46  and  _47
REMARK   20  A    between atoms: _46  and  _49
REMARK   21  A    between atoms: _49  and  _50
REMARK   22  A    between atoms: _50  and  _51
REMARK   23  A    between atoms: _56  and  _58
REMARK   24  A    between atoms: _58  and  _59
REMARK   25  A    between atoms: _58  and  _61
REMARK   26  A    between atoms: _61  and  _62
REMARK   27  A    between atoms: _62  and  _63
REMARK   28  A    between atoms: _63  and  _64
REMARK   29  A    between atoms: _73  and  _75
REMARK   30  A    between atoms: _75  and  _76
REMARK   31  A    between atoms: _75  and  _78
REMARK   32  A    between atoms: _78  and  _79
REMARK   33  A    between atoms: _84  and  _86
REMARK   34  A    between atoms: _86  and  _87
REMARK   35  A    between atoms: _86  and  _89
REMARK   36  A    between atoms: _89  and  _90
REMARK   37  A    between atoms: _100  and  _102
REMARK   38  A    between atoms: _102  and  _103
REMARK   39  A    between atoms: _102  and  _105
REMARK   40  A    between atoms: _105  and  _106
REMARK   41  A    between atoms: _111  and  _113
REMARK   42  A    between atoms: _113  and  _114
REMARK   43  A    between atoms: _113  and  _116
REMARK   44  A    between atoms: _116  and  _117
REMARK   45  A    between atoms: _117  and  _118
REMARK   46  A    between atoms: _121  and  _123
REMARK   47  A    between atoms: _123  and  _124
REMARK   48  A    between atoms: _123  and  _126
REMARK   49  A    between atoms: _129  and  _131
REMARK   50  A    between atoms: _131  and  _132
REMARK   51  A    between atoms: _131  and  _134
REMARK   52  A    between atoms: _134  and  _135
REMARK   53  A    between atoms: _140  and  _142
REMARK   54  A    between atoms: _142  and  _143
REMARK   55  A    between atoms: _142  and  _145
REMARK   56  A    between atoms: _148  and  _150
REMARK   57  A    between atoms: _150  and  _151
REMARK   58  A    between atoms: _150  and  _153
REMARK   59  A    between atoms: _153  and  _154
REMARK   60  A    between atoms: _160  and  _162
REMARK   61  A    between atoms: _162  and  _163
REMARK   62  A    between atoms: _162  and  _165
REMARK   63  A    between atoms: _165  and  _166
REMARK   64  A    between atoms: _171  and  _173
REMARK   65  A    between atoms: _173  and  _174
REMARK   66  A    between atoms: _173  and  _176
REMARK   67  A    between atoms: _176  and  _177
REMARK   68  A    between atoms: _182  and  _184
REMARK   69  A    between atoms: _184  and  _185
REMARK   70  A    between atoms: _184  and  _187
REMARK   71  A    between atoms: _187  and  _188
REMARK   72  A    between atoms: _193  and  _195
REMARK   73  A    between atoms: _195  and  _196
REMARK   74  A    between atoms: _195  and  _198
REMARK   75  A    between atoms: _198  and  _199
REMARK   76  A    between atoms: _204  and  _205
REMARK   77  A    between atoms: _207  and  _209
REMARK   78  A    between atoms: _209  and  _210
REMARK   79  A    between atoms: _209  and  _212
REMARK   80  A    between atoms: _212  and  _213
REMARK   81  A    between atoms: _218  and  _219
REMARK   82  A    between atoms: _221  and  _223
REMARK   83  A    between atoms: _223  and  _224
REMARK   84  A    between atoms: _223  and  _226
REMARK   85  A    between atoms: _226  and  _227
REMARK   86  A    between atoms: _227  and  _228
REMARK   87  A    between atoms: _230  and  _232
REMARK   88  A    between atoms: _232  and  _233
REMARK   89  A    between atoms: _232  and  _235
REMARK   90  A    between atoms: _235  and  _236
REMARK   91  A    between atoms: _246  and  _248
REMARK   92  A    between atoms: _248  and  _249
REMARK   93  A    between atoms: _248  and  _251
REMARK   94  A    between atoms: _251  and  _252
REMARK   95  A    between atoms: _255  and  _257
REMARK   96  A    between atoms: _257  and  _258
REMARK   97  A    between atoms: _257  and  _260
REMARK   98  A    between atoms: _260  and  _261
REMARK   99  A    between atoms: _261  and  _262
REMARK  100  A    between atoms: _265  and  _267
REMARK  101  A    between atoms: _267  and  _268
REMARK  102  A    between atoms: _267  and  _270
REMARK  103  A    between atoms: _270  and  _271
REMARK  104  A    between atoms: _276  and  _278
REMARK  105  A    between atoms: _278  and  _279
REMARK  106  A    between atoms: _281  and  _283
REMARK  107  A    between atoms: _283  and  _284
REMARK  108  A    between atoms: _287  and  _289
REMARK  109  A    between atoms: _289  and  _290
REMARK  110  A    between atoms: _293  and  _295
REMARK  111  A    between atoms: _295  and  _296
REMARK  112  A    between atoms: _295  and  _298
REMARK  113  A    between atoms: _298  and  _299
REMARK  114  A    between atoms: _309  and  _311
REMARK  115  A    between atoms: _311  and  _312
REMARK  116  A    between atoms: _311  and  _314
REMARK  117  A    between atoms: _314  and  _315
REMARK  118  A    between atoms: _317  and  _319
REMARK  119  A    between atoms: _319  and  _320
REMARK  120  A    between atoms: _319  and  _322
REMARK  121  A    between atoms: _322  and  _323
REMARK  122  A    between atoms: _328  and  _330
REMARK  123  A    between atoms: _330  and  _331
REMARK  124  A    between atoms: _330  and  _333
REMARK  125  A    between atoms: _333  and  _334
REMARK  126  A    between atoms: _340  and  _342
REMARK  127  A    between atoms: _342  and  _343
REMARK  128  A    between atoms: _342  and  _345
REMARK  129  A    between atoms: _345  and  _346
REMARK  130  A    between atoms: _346  and  _347
REMARK  131  A    between atoms: _350  and  _352
REMARK  132  A    between atoms: _352  and  _353
REMARK  133  A    between atoms: _352  and  _355
REMARK  134  A    between atoms: _355  and  _356
REMARK  135  A    between atoms: _366  and  _368
REMARK  136  A    between atoms: _368  and  _369
REMARK  137  A    between atoms: _368  and  _371
REMARK  138  A    between atoms: _371  and  _372
REMARK  139  A    between atoms: _372  and  _373
REMARK  140  A    between atoms: _376  and  _378
REMARK  141  A    between atoms: _378  and  _379
REMARK  142  A    between atoms: _378  and  _381
REMARK  143  A    between atoms: _381  and  _382
REMARK  144  A    between atoms: _382  and  _383
REMARK  145  A    between atoms: _383  and  _384
REMARK  146  A    between atoms: _384  and  _385
REMARK  147  A    between atoms: _389  and  _391
REMARK  148  A    between atoms: _391  and  _392
REMARK  149  A    between atoms: _391  and  _394
REMARK  150  A    between atoms: _394  and  _395
REMARK                            x       y       z     vdW  Elec       q    Type
REMARK                         _______ _______ _______ _____ _____    ______ ____
ROOT
ATOM      1  CA  TYR A   2      -5.914  11.731  17.132  0.00  0.00    +0.153 C 
ENDROOT
BRANCH   1   4
ATOM      2  C   ASN A   1      -3.944  13.122  17.113  0.00  0.00    +0.239 C 
ATOM      3  O   ASN A   1      -3.450  12.494  18.050  0.00  0.00    -0.274 OA
ATOM      4  N   TYR A   2      -5.131  12.837  16.593  0.00  0.00    -0.297 N 
ATOM      5  H   TYR A   2      -5.502  13.401  15.802  0.00  0.00    +0.150 HD
BRANCH   2   6
ATOM      6  CA  ASN A   1      -3.189  14.251  16.474  0.00  0.00    +0.154 C 
BRANCH   6   7
ATOM      7  N   ASN A   1      -2.455  14.916  17.528  0.00  0.00    -0.238 NA
ATOM      8  H   ASN A   1      -1.542  14.528  17.840  0.00  0.00    +0.142 HD
ENDBRANCH   6   7
BRANCH   6   9
ATOM      9  CB  ASN A   1      -2.247  13.653  15.427  0.00  0.00    +0.111 C 
BRANCH   9  10
ATOM     10  CG  ASN A   1      -1.425  14.704  14.680  0.00  0.00    +0.221 C 
ATOM     11  OD1 ASN A   1      -1.707  15.925  14.687  0.00  0.00    -0.275 OA
ATOM     12  ND2 ASN A   1      -0.412  14.219  14.000  0.00  0.00    -0.329 N 
ATOM     13 HD21 ASN A   1      -0.212  13.199  14.021  0.00  0.00    +0.145 HD
ATOM     14 HD22 ASN A   1       0.191  14.855  13.440  0.00  0.00    +0.145 HD
ENDBRANCH   9  10
ENDBRANCH   6   9
ENDBRANCH   2   6
ENDBRANCH   1   4
BRANCH   1  15
ATOM     15  C   TYR A   2      -6.804  11.074  16.072  0.00  0.00    +0.241 C 
ATOM     16  N   TYR A   3      -6.824   9.739  16.070  0.00  0.00    -0.298 N 
ATOM     17  H   TYR A   3      -6.267   9.223  16.781  0.00  0.00    +0.150 HD
ATOM     18  O   TYR A   2      -7.459  11.774  15.280  0.00  0.00    -0.273 OA
BRANCH  16  19
ATOM     19  CA  TYR A   3      -7.621   8.973  15.079  0.00  0.00    +0.141 C 
BRANCH  19  20
ATOM     20  C   TYR A   3      -8.478   7.872  15.662  0.00  0.00    +0.227 C 
ATOM     21  O   TYR A   3      -9.629   7.706  15.246  0.00  0.00    -0.286 OA
ENDBRANCH  19  20
BRANCH  19  22
ATOM     22  CB  TYR A   3      -6.738   8.365  13.977  0.00  0.00    +0.054 C 
BRANCH  22  23
ATOM     23  CG  TYR A   3      -6.151   9.418  13.076  0.00  0.00    -0.020 A 
ATOM     24  CD2 TYR A   3      -4.916   9.986  13.359  0.00  0.00    -0.001 A 
ATOM     25  CE2 TYR A   3      -4.376  10.951  12.543  0.00  0.00    +0.036 A 
ATOM     26  CZ  TYR A   3      -5.058  11.361  11.437  0.00  0.00    +0.134 A 
ATOM     27  CE1 TYR A   3      -6.294  10.821  11.125  0.00  0.00    +0.036 A 
ATOM     28  CD1 TYR A   3      -6.838   9.855  11.949  0.00  0.00    -0.001 A 
BRANCH  26  29
ATOM     29  OH  TYR A   3      -4.521  12.317  10.631  0.00  0.00    -0.506 OA
ATOM     30  HH  TYR A   3      -4.382  13.147  11.153  0.00  0.00    +0.292 HD
ENDBRANCH  26  29
ENDBRANCH  22  23
ENDBRANCH  19  22
ENDBRANCH  16  19
ENDBRANCH   1  15
BRANCH   1  31
ATOM     31  CB  TYR A   2      -6.800  12.198  18.302  0.00  0.00    +0.055 C 
BRANCH  31  32
ATOM     32  CG  TYR A   2      -7.688  11.060  18.766  0.00  0.00    -0.020 A 
ATOM     33  CD2 TYR A   2      -7.187  10.101  19.612  0.00  0.00    -0.001 A 
ATOM     34  CE2 TYR A   2      -7.941   9.030  20.027  0.00  0.00    +0.036 A 
ATOM     35  CZ  TYR A   2      -9.228   8.895  19.593  0.00  0.00    +0.134 A 
ATOM     36  CE1 TYR A   2      -9.795   9.845  18.728  0.00  0.00    +0.036 A 
ATOM     37  CD1 TYR A   2      -9.009  10.929  18.309  0.00  0.00    -0.001 A 
BRANCH  35  38
ATOM     38  OH  TYR A   2      -9.932   7.806  20.051  0.00  0.00    -0.506 OA
ATOM     39  HH  TYR A   2     -10.725   8.116  20.556  0.00  0.00    +0.292 HD
ENDBRANCH  35  38
ENDBRANCH  31  32
ENDBRANCH   1  31
TORSDOF 14
REMARK  Name = ../refined-set-2016/1w3j/1w3j_pocket.pdb
REMARK  150 active torsions:
REMARK  status: ('A' for Active; 'I' for Inactive)
REMARK    1  A    between atoms: _1  and  _3
REMARK    2  A    between atoms: _3  and  _4
REMARK    3  A    between atoms: _7  and  _9
REMARK    4  A    between atoms: _9  and  _10
REMARK    5  A    between atoms: _9  and  _12
REMARK    6  A    between atoms: _12  and  _13
REMARK    7  A    between atoms: _16  and  _18
REMARK    8  A    between atoms: _18  and  _19
REMARK    9  A    between atoms: _22  and  _24
REMARK   10  A    between atoms: _24  and  _25
REMARK   11  A    between atoms: _24  and  _27
REMARK   12  A    between atoms: _27  and  _28
REMARK   13  A    between atoms: _30  and  _32
REMARK   14  A    between atoms: _32  and  _33
REMARK   15  A    between atoms: _32  and  _35
REMARK   16  A    between atoms: _35  and  _36
REMARK   17  A    between atoms: _41  and  _42
REMARK   18  A    between atoms: _44  and  _46
REMARK   19  A    between atoms: _46  and  _47
REMARK   20  A    between atoms: _46  and  _49
REMARK   21  A    between atoms: _49  and  _50
REMARK   22  A    between atoms: _50  and  _51
REMARK   23  A    between atoms: _56  and  _58
REMARK   24  A    between atoms: _58  and  _59
REMARK   25  A    between atoms: _58  and  _61
REMARK   26  A    between atoms: _61  and  _62
REMARK   27  A    between atoms: _62  and  _63
REMARK   28  A    between atoms: _63  and  _64
REMARK   29  A    between atoms: _73  and  _75
REMARK   30  A    between atoms: _75  and  _76
REMARK   31  A    between atoms: _75  and  _78
REMARK   32  A    between atoms: _78  and  _79
REMARK   33  A    between atoms: _84  and  _86
REMARK   34  A    between atoms: _86  and  _87
REMARK   35  A    between atoms: _86  and  _89
REMARK   36  A    between atoms: _89  and  _90
REMARK   37  A    between atoms: _100  and  _102
REMARK   38  A    between atoms: _102  and  _103
REMARK   39  A    between atoms: _102  and  _105
REMARK   40  A    between atoms: _105  and  _106
REMARK   41  A    between atoms: _111  and  _113
REMARK   42  A    between atoms: _113  and  _114
REMARK   43  A    between atoms: _113  and  _116
REMARK   44  A    between atoms: _116  and  _117
REMARK   45  A    between atoms: _117  and  _118
REMARK   46  A    between atoms: _121  and  _123
REMARK   47  A    between atoms: _123  and  _124
REMARK   48  A    between atoms: _123  and  _126
REMARK   49  A    between atoms: _129  and  _131
REMARK   50  A    between atoms: _131  and  _132
REMARK   51  A    between atoms: _131  and  _134
REMARK   52  A    between atoms: _134  and  _135
REMARK   53  A    between atoms: _140  and  _142
REMARK   54  A    between atoms: _142  and  _143
REMARK   55  A    between atoms: _142  and  _145
REMARK   56  A    between atoms: _148  and  _150
REMARK   57  A    between atoms: _150  and  _151
REMARK   58  A    between atoms: _150  and  _153
REMARK   59  A    between atoms: _153  and  _154
REMARK   60  A    between atoms: _160  and  _162
REMARK   61  A    between atoms: _162  and  _163
REMARK   62  A    between atoms: _162  and  _165
REMARK   63  A    between atoms: _165  and  _166
REMARK   64  A    between atoms: _171  and  _173
REMARK   65  A    between atoms: _173  and  _174
REMARK   66  A    between atoms: _173  and  _176
REMARK   67  A    between atoms: _176  and  _177
REMARK   68  A    between atoms: _182  and  _184
REMARK   69  A    between atoms: _184  and  _185
REMARK   70  A    between atoms: _184  and  _187
REMARK   71  A    between atoms: _187  and  _188
REMARK   72  A    between atoms: _193  and  _195
REMARK   73  A    between atoms: _195  and  _196
REMARK   74  A    between atoms: _195  and  _198
REMARK   75  A    between atoms: _198  and  _199
REMARK   76  A    between atoms: _204  and  _205
REMARK   77  A    between atoms: _207  and  _209
REMARK   78  A    between atoms: _209  and  _210
REMARK   79  A    between atoms: _209  and  _212
REMARK   80  A    between atoms: _212  and  _213
REMARK   81  A    between atoms: _218  and  _219
REMARK   82  A    between atoms: _221  and  _223
REMARK   83  A    between atoms: _223  and  _224
REMARK   84  A    between atoms: _223  and  _226
REMARK   85  A    between atoms: _226  and  _227
REMARK   86  A    between atoms: _227  and  _228
REMARK   87  A    between atoms: _230  and  _232
REMARK   88  A    between atoms: _232  and  _233
REMARK   89  A    between atoms: _232  and  _235
REMARK   90  A    between atoms: _235  and  _236
REMARK   91  A    between atoms: _246  and  _248
REMARK   92  A    between atoms: _248  and  _249
REMARK   93  A    between atoms: _248  and  _251
REMARK   94  A    between atoms: _251  and  _252
REMARK   95  A    between atoms: _255  and  _257
REMARK   96  A    between atoms: _257  and  _258
REMARK   97  A    between atoms: _257  and  _260
REMARK   98  A    between atoms: _260  and  _261
REMARK   99  A    between atoms: _261  and  _262
REMARK  100  A    between atoms: _265  and  _267
REMARK  101  A    between atoms: _267  and  _268
REMARK  102  A    between atoms: _267  and  _270
REMARK  103  A    between atoms: _270  and  _271
REMARK  104  A    between atoms: _276  and  _278
REMARK  105  A    between atoms: _278  and  _279
REMARK  106  A    between atoms: _281  and  _283
REMARK  107  A    between atoms: _283  and  _284
REMARK  108  A    between atoms: _287  and  _289
REMARK  109  A    between atoms: _289  and  _290
REMARK  110  A    between atoms: _293  and  _295
REMARK  111  A    between atoms: _295  and  _296
REMARK  112  A    between atoms: _295  and  _298
REMARK  113  A    between atoms: _298  and  _299
REMARK  114  A    between atoms: _309  and  _311
REMARK  115  A    between atoms: _311  and  _312
REMARK  116  A    between atoms: _311  and  _314
REMARK  117  A    between atoms: _314  and  _315
REMARK  118  A    between atoms: _317  and  _319
REMARK  119  A    between atoms: _319  and  _320
REMARK  120  A    between atoms: _319  and  _322
REMARK  121  A    between atoms: _322  and  _323
REMARK  122  A    between atoms: _328  and  _330
REMARK  123  A    between atoms: _330  and  _331
REMARK  124  A    between atoms: _330  and  _333
REMARK  125  A    between atoms: _333  and  _334
REMARK  126  A    between atoms: _340  and  _342
REMARK  127  A    between atoms: _342  and  _343
REMARK  128  A    between atoms: _342  and  _345
REMARK  129  A    between atoms: _345  and  _346
REMARK  130  A    between atoms: _346  and  _347
REMARK  131  A    between atoms: _350  and  _352
REMARK  132  A    between atoms: _352  and  _353
REMARK  133  A    between atoms: _352  and  _355
REMARK  134  A    between atoms: _355  and  _356
REMARK  135  A    between atoms: _366  and  _368
REMARK  136  A    between atoms: _368  and  _369
REMARK  137  A    between atoms: _368  and  _371
REMARK  138  A    between atoms: _371  and  _372
REMARK  139  A    between atoms: _372  and  _373
REMARK  140  A    between atoms: _376  and  _378
REMARK  141  A    between atoms: _378  and  _379
REMARK  142  A    between atoms: _378  and  _381
REMARK  143  A    between atoms: _381  and  _382
REMARK  144  A    between atoms: _382  and  _383
REMARK  145  A    between atoms: _383  and  _384
REMARK  146  A    between atoms: _384  and  _385
REMARK  147  A    between atoms: _389  and  _391
REMARK  148  A    between atoms: _391  and  _392
REMARK  149  A    between atoms: _391  and  _394
REMARK  150  A    between atoms: _394  and  _395
REMARK                            x       y       z     vdW  Elec       q    Type
REMARK                         _______ _______ _______ _____ _____    ______ ____
ROOT
ATOM      1  CA  MET A   1      -7.696   1.667   7.846  0.00  0.00    +0.134 C 
ENDROOT
BRANCH   1   2
ATOM      2  N   MET A   1      -8.995   2.050   7.311  0.00  0.00    -0.239 NA
ATOM      3  H   MET A   1      -9.474   2.892   7.689  0.00  0.00    +0.142 HD
ENDBRANCH   1   2
BRANCH   1   4
ATOM      4  C   MET A   1      -7.847   0.486   8.799  0.00  0.00    +0.224 C 
ATOM      5  O   MET A   1      -6.861  -0.150   9.173  0.00  0.00    -0.287 OA
ENDBRANCH   1   4
BRANCH   1   6
ATOM      6  CB  MET A   1      -7.044   2.820   8.616  0.00  0.00    +0.037 C 
BRANCH   6   7
ATOM      7  CG  MET A   1      -6.796   4.094   7.836  0.00  0.00    +0.059 C 
BRANCH   7   8
ATOM      8  SD  MET A   1      -5.515   3.963   6.579  0.00  0.00    -0.139 S 
ATOM      9  CE  MET A   1      -4.091   3.395   7.483  0.00  0.00    +0.069 C 
ENDBRANCH   7   8
ENDBRANCH   6   7
ENDBRANCH   1   6
TORSDOF 5
REMARK  Name = ../refined-set-2016/1w3j/1w3j_pocket.pdb
REMARK  150 active torsions:
REMARK  status: ('A' for Active; 'I' for Inactive)
REMARK    1  A    between atoms: _1  and  _3
REMARK    2  A    between atoms: _3  and  _4
REMARK    3  A    between atoms: _7  and  _9
REMARK    4  A    between atoms: _9  and  _10
REMARK    5  A    between atoms: _9  and  _12
REMARK    6  A    between atoms: _12  and  _13
REMARK    7  A    between atoms: _16  and  _18
REMARK    8  A    between atoms: _18  and  _19
REMARK    9  A    between atoms: _22  and  _24
REMARK   10  A    between atoms: _24  and  _25
REMARK   11  A    between atoms: _24  and  _27
REMARK   12  A    between atoms: _27  and  _28
REMARK   13  A    between atoms: _30  and  _32
REMARK   14  A    between atoms: _32  and  _33
REMARK   15  A    between atoms: _32  and  _35
REMARK   16  A    between atoms: _35  and  _36
REMARK   17  A    between atoms: _41  and  _42
REMARK   18  A    between atoms: _44  and  _46
REMARK   19  A    between atoms: _46  and  _47
REMARK   20  A    between atoms: _46  and  _49
REMARK   21  A    between atoms: _49  and  _50
REMARK   22  A    between atoms: _50  and  _51
REMARK   23  A    between atoms: _56  and  _58
REMARK   24  A    between atoms: _58  and  _59
REMARK   25  A    between atoms: _58  and  _61
REMARK   26  A    between atoms: _61  and  _62
REMARK   27  A    between atoms: _62  and  _63
REMARK   28  A    between atoms: _63  and  _64
REMARK   29  A    between atoms: _73  and  _75
REMARK   30  A    between atoms: _75  and  _76
REMARK   31  A    between atoms: _75  and  _78
REMARK   32  A    between atoms: _78  and  _79
REMARK   33  A    between atoms: _84  and  _86
REMARK   34  A    between atoms: _86  and  _87
REMARK   35  A    between atoms: _86  and  _89
REMARK   36  A    between atoms: _89  and  _90
REMARK   37  A    between atoms: _100  and  _102
REMARK   38  A    between atoms: _102  and  _103
REMARK   39  A    between atoms: _102  and  _105
REMARK   40  A    between atoms: _105  and  _106
REMARK   41  A    between atoms: _111  and  _113
REMARK   42  A    between atoms: _113  and  _114
REMARK   43  A    between atoms: _113  and  _116
REMARK   44  A    between atoms: _116  and  _117
REMARK   45  A    between atoms: _117  and  _118
REMARK   46  A    between atoms: _121  and  _123
REMARK   47  A    between atoms: _123  and  _124
REMARK   48  A    between atoms: _123  and  _126
REMARK   49  A    between atoms: _129  and  _131
REMARK   50  A    between atoms: _131  and  _132
REMARK   51  A    between atoms: _131  and  _134
REMARK   52  A    between atoms: _134  and  _135
REMARK   53  A    between atoms: _140  and  _142
REMARK   54  A    between atoms: _142  and  _143
REMARK   55  A    between atoms: _142  and  _145
REMARK   56  A    between atoms: _148  and  _150
REMARK   57  A    between atoms: _150  and  _151
REMARK   58  A    between atoms: _150  and  _153
REMARK   59  A    between atoms: _153  and  _154
REMARK   60  A    between atoms: _160  and  _162
REMARK   61  A    between atoms: _162  and  _163
REMARK   62  A    between atoms: _162  and  _165
REMARK   63  A    between atoms: _165  and  _166
REMARK   64  A    between atoms: _171  and  _173
REMARK   65  A    between atoms: _173  and  _174
REMARK   66  A    between atoms: _173  and  _176
REMARK   67  A    between atoms: _176  and  _177
REMARK   68  A    between atoms: _182  and  _184
REMARK   69  A    between atoms: _184  and  _185
REMARK   70  A    between atoms: _184  and  _187
REMARK   71  A    between atoms: _187  and  _188
REMARK   72  A    between atoms: _193  and  _195
REMARK   73  A    between atoms: _195  and  _196
REMARK   74  A    between atoms: _195  and  _198
REMARK   75  A    between atoms: _198  and  _199
REMARK   76  A    between atoms: _204  and  _205
REMARK   77  A    between atoms: _207  and  _209
REMARK   78  A    between atoms: _209  and  _210
REMARK   79  A    between atoms: _209  and  _212
REMARK   80  A    between atoms: _212  and  _213
REMARK   81  A    between atoms: _218  and  _219
REMARK   82  A    between atoms: _221  and  _223
REMARK   83  A    between atoms: _223  and  _224
REMARK   84  A    between atoms: _223  and  _226
REMARK   85  A    between atoms: _226  and  _227
REMARK   86  A    between atoms: _227  and  _228
REMARK   87  A    between atoms: _230  and  _232
REMARK   88  A    between atoms: _232  and  _233
REMARK   89  A    between atoms: _232  and  _235
REMARK   90  A    between atoms: _235  and  _236
REMARK   91  A    between atoms: _246  and  _248
REMARK   92  A    between atoms: _248  and  _249
REMARK   93  A    between atoms: _248  and  _251
REMARK   94  A    between atoms: _251  and  _252
REMARK   95  A    between atoms: _255  and  _257
REMARK   96  A    between atoms: _257  and  _258
REMARK   97  A    between atoms: _257  and  _260
REMARK   98  A    between atoms: _260  and  _261
REMARK   99  A    between atoms: _261  and  _262
REMARK  100  A    between atoms: _265  and  _267
REMARK  101  A    between atoms: _267  and  _268
REMARK  102  A    between atoms: _267  and  _270
REMARK  103  A    between atoms: _270  and  _271
REMARK  104  A    between atoms: _276  and  _278
REMARK  105  A    between atoms: _278  and  _279
REMARK  106  A    between atoms: _281  and  _283
REMARK  107  A    between atoms: _283  and  _284
REMARK  108  A    between atoms: _287  and  _289
REMARK  109  A    between atoms: _289  and  _290
REMARK  110  A    between atoms: _293  and  _295
REMARK  111  A    between atoms: _295  and  _296
REMARK  112  A    between atoms: _295  and  _298
REMARK  113  A    between atoms: _298  and  _299
REMARK  114  A    between atoms: _309  and  _311
REMARK  115  A    between atoms: _311  and  _312
REMARK  116  A    between atoms: _311  and  _314
REMARK  117  A    between atoms: _314  and  _315
REMARK  118  A    between atoms: _317  and  _319
REMARK  119  A    between atoms: _319  and  _320
REMARK  120  A    between atoms: _319  and  _322
REMARK  121  A    between atoms: _322  and  _323
REMARK  122  A    between atoms: _328  and  _330
REMARK  123  A    between atoms: _330  and  _331
REMARK  124  A    between atoms: _330  and  _333
REMARK  125  A    between atoms: _333  and  _334
REMARK  126  A    between atoms: _340  and  _342
REMARK  127  A    between atoms: _342  and  _343
REMARK  128  A    between atoms: _342  and  _345
REMARK  129  A    between atoms: _345  and  _346
REMARK  130  A    between atoms: _346  and  _347
REMARK  131  A    between atoms: _350  and  _352
REMARK  132  A    between atoms: _352  and  _353
REMARK  133  A    between atoms: _352  and  _355
REMARK  134  A    between atoms: _355  and  _356
REMARK  135  A    between atoms: _366  and  _368
REMARK  136  A    between atoms: _368  and  _369
REMARK  137  A    between atoms: _368  and  _371
REMARK  138  A    between atoms: _371  and  _372
REMARK  139  A    between atoms: _372  and  _373
REMARK  140  A    between atoms: _376  and  _378
REMARK  141  A    between atoms: _378  and  _379
REMARK  142  A    between atoms: _378  and  _381
REMARK  143  A    between atoms: _381  and  _382
REMARK  144  A    between atoms: _382  and  _383
REMARK  145  A    between atoms: _383  and  _384
REMARK  146  A    between atoms: _384  and  _385
REMARK  147  A    between atoms: _389  and  _391
REMARK  148  A    between atoms: _391  and  _392
REMARK  149  A    between atoms: _391  and  _394
REMARK  150  A    between atoms: _394  and  _395
REMARK                            x       y       z     vdW  Elec       q    Type
REMARK                         _______ _______ _______ _____ _____    ______ ____
ROOT
ATOM      1  CG  TRP A   1      -7.004   3.143  12.241  0.00  0.00    -0.002 A 
ATOM      2  CD1 TRP A   1      -6.150   2.083  12.225  0.00  0.00    +0.068 A 
ATOM      3  NE1 TRP A   1      -4.946   2.446  11.676  0.00  0.00    -0.352 N 
ATOM      4  HE1 TRP A   1      -4.132   1.815  11.529  0.00  0.00    +0.166 HD
ATOM      5  CE2 TRP A   1      -4.993   3.781  11.352  0.00  0.00    +0.056 A 
ATOM      6  CZ2 TRP A   1      -4.009   4.616  10.782  0.00  0.00    +0.017 A 
ATOM      7  CH2 TRP A   1      -4.350   5.933  10.534  0.00  0.00    +0.001 A 
ATOM      8  CZ3 TRP A   1      -5.620   6.438  10.888  0.00  0.00    +0.000 A 
ATOM      9  CE3 TRP A   1      -6.597   5.604  11.458  0.00  0.00    +0.001 A 
ATOM     10  CD2 TRP A   1      -6.279   4.254  11.702  0.00  0.00    +0.013 A 
ENDROOT
BRANCH   1  11
ATOM     11  CB  TRP A   1      -8.413   3.166  12.778  0.00  0.00    +0.053 C 
BRANCH  11  12
ATOM     12  CA  TRP A   1      -9.063   1.795  12.990  0.00  0.00    +0.137 C 
BRANCH  12  13
ATOM     13  N   TRP A   1      -9.251   1.128  11.712  0.00  0.00    -0.239 NA
ATOM     14  H   TRP A   1      -9.399   1.703  10.858  0.00  0.00    +0.142 HD
ENDBRANCH  12  13
BRANCH  12  15
ATOM     15  C   TRP A   1     -10.413   1.971  13.703  0.00  0.00    +0.224 C 
ATOM     16  O   TRP A   1     -11.349   2.538  13.144  0.00  0.00    -0.287 OA
ENDBRANCH  12  15
ENDBRANCH  11  12
ENDBRANCH   1  11
TORSDOF 4
REMARK  Name = ../refined-set-2016/1w3j/1w3j_pocket.pdb
REMARK  150 active torsions:
REMARK  status: ('A' for Active; 'I' for Inactive)
REMARK    1  A    between atoms: _1  and  _3
REMARK    2  A    between atoms: _3  and  _4
REMARK    3  A    between atoms: _7  and  _9
REMARK    4  A    between atoms: _9  and  _10
REMARK    5  A    between atoms: _9  and  _12
REMARK    6  A    between atoms: _12  and  _13
REMARK    7  A    between atoms: _16  and  _18
REMARK    8  A    between atoms: _18  and  _19
REMARK    9  A    between atoms: _22  and  _24
REMARK   10  A    between atoms: _24  and  _25
REMARK   11  A    between atoms: _24  and  _27
REMARK   12  A    between atoms: _27  and  _28
REMARK   13  A    between atoms: _30  and  _32
REMARK   14  A    between atoms: _32  and  _33
REMARK   15  A    between atoms: _32  and  _35
REMARK   16  A    between atoms: _35  and  _36
REMARK   17  A    between atoms: _41  and  _42
REMARK   18  A    between atoms: _44  and  _46
REMARK   19  A    between atoms: _46  and  _47
REMARK   20  A    between atoms: _46  and  _49
REMARK   21  A    between atoms: _49  and  _50
REMARK   22  A    between atoms: _50  and  _51
REMARK   23  A    between atoms: _56  and  _58
REMARK   24  A    between atoms: _58  and  _59
REMARK   25  A    between atoms: _58  and  _61
REMARK   26  A    between atoms: _61  and  _62
REMARK   27  A    between atoms: _62  and  _63
REMARK   28  A    between atoms: _63  and  _64
REMARK   29  A    between atoms: _73  and  _75
REMARK   30  A    between atoms: _75  and  _76
REMARK   31  A    between atoms: _75  and  _78
REMARK   32  A    between atoms: _78  and  _79
REMARK   33  A    between atoms: _84  and  _86
REMARK   34  A    between atoms: _86  and  _87
REMARK   35  A    between atoms: _86  and  _89
REMARK   36  A    between atoms: _89  and  _90
REMARK   37  A    between atoms: _100  and  _102
REMARK   38  A    between atoms: _102  and  _103
REMARK   39  A    between atoms: _102  and  _105
REMARK   40  A    between atoms: _105  and  _106
REMARK   41  A    between atoms: _111  and  _113
REMARK   42  A    between atoms: _113  and  _114
REMARK   43  A    between atoms: _113  and  _116
REMARK   44  A    between atoms: _116  and  _117
REMARK   45  A    between atoms: _117  and  _118
REMARK   46  A    between atoms: _121  and  _123
REMARK   47  A    between atoms: _123  and  _124
REMARK   48  A    between atoms: _123  and  _126
REMARK   49  A    between atoms: _129  and  _131
REMARK   50  A    between atoms: _131  and  _132
REMARK   51  A    between atoms: _131  and  _134
REMARK   52  A    between atoms: _134  and  _135
REMARK   53  A    between atoms: _140  and  _142
REMARK   54  A    between atoms: _142  and  _143
REMARK   55  A    between atoms: _142  and  _145
REMARK   56  A    between atoms: _148  and  _150
REMARK   57  A    between atoms: _150  and  _151
REMARK   58  A    between atoms: _150  and  _153
REMARK   59  A    between atoms: _153  and  _154
REMARK   60  A    between atoms: _160  and  _162
REMARK   61  A    between atoms: _162  and  _163
REMARK   62  A    between atoms: _162  and  _165
REMARK   63  A    between atoms: _165  and  _166
REMARK   64  A    between atoms: _171  and  _173
REMARK   65  A    between atoms: _173  and  _174
REMARK   66  A    between atoms: _173  and  _176
REMARK   67  A    between atoms: _176  and  _177
REMARK   68  A    between atoms: _182  and  _184
REMARK   69  A    between atoms: _184  and  _185
REMARK   70  A    between atoms: _184  and  _187
REMARK   71  A    between atoms: _187  and  _188
REMARK   72  A    between atoms: _193  and  _195
REMARK   73  A    between atoms: _195  and  _196
REMARK   74  A    between atoms: _195  and  _198
REMARK   75  A    between atoms: _198  and  _199
REMARK   76  A    between atoms: _204  and  _205
REMARK   77  A    between atoms: _207  and  _209
REMARK   78  A    between atoms: _209  and  _210
REMARK   79  A    between atoms: _209  and  _212
REMARK   80  A    between atoms: _212  and  _213
REMARK   81  A    between atoms: _218  and  _219
REMARK   82  A    between atoms: _221  and  _223
REMARK   83  A    between atoms: _223  and  _224
REMARK   84  A    between atoms: _223  and  _226
REMARK   85  A    between atoms: _226  and  _227
REMARK   86  A    between atoms: _227  and  _228
REMARK   87  A    between atoms: _230  and  _232
REMARK   88  A    between atoms: _232  and  _233
REMARK   89  A    between atoms: _232  and  _235
REMARK   90  A    between atoms: _235  and  _236
REMARK   91  A    between atoms: _246  and  _248
REMARK   92  A    between atoms: _248  and  _249
REMARK   93  A    between atoms: _248  and  _251
REMARK   94  A    between atoms: _251  and  _252
REMARK   95  A    between atoms: _255  and  _257
REMARK   96  A    between atoms: _257  and  _258
REMARK   97  A    between atoms: _257  and  _260
REMARK   98  A    between atoms: _260  and  _261
REMARK   99  A    between atoms: _261  and  _262
REMARK  100  A    between atoms: _265  and  _267
REMARK  101  A    between atoms: _267  and  _268
REMARK  102  A    between atoms: _267  and  _270
REMARK  103  A    between atoms: _270  and  _271
REMARK  104  A    between atoms: _276  and  _278
REMARK  105  A    between atoms: _278  and  _279
REMARK  106  A    between atoms: _281  and  _283
REMARK  107  A    between atoms: _283  and  _284
REMARK  108  A    between atoms: _287  and  _289
REMARK  109  A    between atoms: _289  and  _290
REMARK  110  A    between atoms: _293  and  _295
REMARK  111  A    between atoms: _295  and  _296
REMARK  112  A    between atoms: _295  and  _298
REMARK  113  A    between atoms: _298  and  _299
REMARK  114  A    between atoms: _309  and  _311
REMARK  115  A    between atoms: _311  and  _312
REMARK  116  A    between atoms: _311  and  _314
REMARK  117  A    between atoms: _314  and  _315
REMARK  118  A    between atoms: _317  and  _319
REMARK  119  A    between atoms: _319  and  _320
REMARK  120  A    between atoms: _319  and  _322
REMARK  121  A    between atoms: _322  and  _323
REMARK  122  A    between atoms: _328  and  _330
REMARK  123  A    between atoms: _330  and  _331
REMARK  124  A    between atoms: _330  and  _333
REMARK  125  A    between atoms: _333  and  _334
REMARK  126  A    between atoms: _340  and  _342
REMARK  127  A    between atoms: _342  and  _343
REMARK  128  A    between atoms: _342  and  _345
REMARK  129  A    between atoms: _345  and  _346
REMARK  130  A    between atoms: _346  and  _347
REMARK  131  A    between atoms: _350  and  _352
REMARK  132  A    between atoms: _352  and  _353
REMARK  133  A    between atoms: _352  and  _355
REMARK  134  A    between atoms: _355  and  _356
REMARK  135  A    between atoms: _366  and  _368
REMARK  136  A    between atoms: _368  and  _369
REMARK  137  A    between atoms: _368  and  _371
REMARK  138  A    between atoms: _371  and  _372
REMARK  139  A    between atoms: _372  and  _373
REMARK  140  A    between atoms: _376  and  _378
REMARK  141  A    between atoms: _378  and  _379
REMARK  142  A    between atoms: _378  and  _381
REMARK  143  A    between atoms: _381  and  _382
REMARK  144  A    between atoms: _382  and  _383
REMARK  145  A    between atoms: _383  and  _384
REMARK  146  A    between atoms: _384  and  _385
REMARK  147  A    between atoms: _389  and  _391
REMARK  148  A    between atoms: _391  and  _392
REMARK  149  A    between atoms: _391  and  _394
REMARK  150  A    between atoms: _394  and  _395
REMARK                            x       y       z     vdW  Elec       q    Type
REMARK                         _______ _______ _______ _____ _____    ______ ____
ROOT
ATOM      1  CA  ASN A   3      -8.307  14.354  13.108  0.00  0.00    +0.158 C 
ENDROOT
BRANCH   1   2
ATOM      2  C   ASN A   3      -9.012  14.122  11.797  0.00  0.00    +0.241 C 
ATOM      3  N   GLY A   4      -9.358  12.882  11.521  0.00  0.00    -0.295 N 
ATOM      4  H   GLY A   4      -9.176  12.120  12.205  0.00  0.00    +0.150 HD
ATOM      5  O   ASN A   3      -9.200  15.056  11.005  0.00  0.00    -0.273 OA
BRANCH   3   6
ATOM      6  CA  GLY A   4      -9.999  12.589  10.245  0.00  0.00    +0.176 C 
BRANCH   6   7
ATOM      7  C   GLY A   4     -10.179  11.109  10.075  0.00  0.00    +0.243 C 
ATOM      8  O   GLY A   4      -9.892  10.337  10.979  0.00  0.00    -0.273 OA
ATOM      9  N   ALA A   5     -10.662  10.715   8.903  0.00  0.00    -0.297 N 
ATOM     10  H   ALA A   5     -10.861  11.419   8.164  0.00  0.00    +0.150 HD
BRANCH   9  11
ATOM     11  CA  ALA A   5     -10.915   9.308   8.645  0.00  0.00    +0.149 C 
ATOM     12  CB  ALA A   5     -12.290   8.906   9.160  0.00  0.00    +0.031 C 
BRANCH  11  13
ATOM     13  C   ALA A   5     -10.762   8.928   7.186  0.00  0.00    +0.241 C 
ATOM     14  N   ALA A   6     -10.427   7.657   6.980  0.00  0.00    -0.298 N 
ATOM     15  H   ALA A   6     -10.191   7.058   7.797  0.00  0.00    +0.150 HD
ATOM     16  O   ALA A   5     -10.951   9.751   6.284  0.00  0.00    -0.273 OA
BRANCH  14  17
ATOM     17  CA  ALA A   6     -10.382   7.085   5.656  0.00  0.00    +0.137 C 
ATOM     18  CB  ALA A   6      -9.095   6.261   5.480  0.00  0.00    +0.030 C 
BRANCH  17  19
ATOM     19  C   ALA A   6     -11.609   6.198   5.428  0.00  0.00    +0.227 C 
ATOM     20  O   ALA A   6     -11.850   5.247   6.183  0.00  0.00    -0.286 OA
ENDBRANCH  17  19
ENDBRANCH  14  17
ENDBRANCH  11  13
ENDBRANCH   9  11
ENDBRANCH   6   7
ENDBRANCH   3   6
ENDBRANCH   1   2
BRANCH   1  23
ATOM     21  C   GLU A   2      -6.102  15.442  13.492  0.00  0.00    +0.241 C 
ATOM     22  O   GLU A   2      -5.935  14.949  14.604  0.00  0.00    -0.273 OA
ATOM     23  N   ASN A   3      -7.202  15.272  12.759  0.00  0.00    -0.297 N 
ATOM     24  H   ASN A   3      -7.289  15.823  11.881  0.00  0.00    +0.150 HD
BRANCH  21  25
ATOM     25  CA  GLU A   2      -5.007  16.263  12.856  0.00  0.00    +0.149 C 
BRANCH  25  27
ATOM     26  C   THR A   1      -3.771  18.332  13.465  0.00  0.00    +0.241 C 
ATOM     27  N   GLU A   2      -4.475  17.247  13.814  0.00  0.00    -0.297 N 
ATOM     28  H   GLU A   2      -4.657  17.090  14.826  0.00  0.00    +0.150 HD
ATOM     29  O   THR A   1      -3.428  18.581  12.310  0.00  0.00    -0.274 OA
BRANCH  26  30
ATOM     30  CA  THR A   1      -3.411  19.303  14.598  0.00  0.00    +0.172 C 
BRANCH  30  31
ATOM     31  CB  THR A   1      -1.874  19.392  14.817  0.00  0.00    +0.135 C 
ATOM     32  CG2 THR A   1      -1.487  20.739  15.453  0.00  0.00    +0.034 C 
BRANCH  31  33
ATOM     33  OG1 THR A   1      -1.472  18.342  15.685  0.00  0.00    -0.383 OA
ATOM     34  HG1 THR A   1      -1.703  17.471  15.276  0.00  0.00    +0.210 HD
ENDBRANCH  31  33
ENDBRANCH  30  31
BRANCH  30  35
ATOM     35  N   THR A   1      -4.087  18.974  15.849  0.00  0.00    -0.236 NA
ATOM     36  H   THR A   1      -3.640  18.312  16.515  0.00  0.00    +0.142 HD
ENDBRANCH  30  35
ENDBRANCH  26  30
ENDBRANCH  25  27
BRANCH  25  37
ATOM     37  CB  GLU A   2      -3.931  15.253  12.399  0.00  0.00    +0.041 C 
BRANCH  37  38
ATOM     38  CG  GLU A   2      -2.851  15.810  11.481  0.00  0.00    +0.116 C 
BRANCH  38  39
ATOM     39  CD  GLU A   2      -1.877  14.756  11.016  0.00  0.00    +0.365 C 
ATOM     40  OE2 GLU A   2      -2.261  13.555  11.003  0.00  0.00    -0.246 OA
ATOM     41  OE1 GLU A   2      -0.732  15.136  10.650  0.00  0.00    -0.246 OA
ENDBRANCH  38  39
ENDBRANCH  37  38
ENDBRANCH  25  37
ENDBRANCH  21  25
ENDBRANCH   1  23
BRANCH   1  42
ATOM     42  CB  ASN A   3      -9.273  14.978  14.146  0.00  0.00    +0.114 C 
BRANCH  42  43
ATOM     43  CG  ASN A   3     -10.502  14.107  14.455  0.00  0.00    +0.222 C 
ATOM     44  ND2 ASN A   3     -10.292  12.922  15.006  0.00  0.00    -0.329 N 
ATOM     45 HD21 ASN A   3     -11.099  12.324  15.276  0.00  0.00    +0.145 HD
ATOM     46 HD22 ASN A   3      -9.320  12.589  15.169  0.00  0.00    +0.145 HD
ATOM     47  OD1 ASN A   3     -11.642  14.547  14.241  0.00  0.00    -0.275 OA
ENDBRANCH  42  43
ENDBRANCH   1  42
TORSDOF 19
REMARK  Name = ../refined-set-2016/1w3j/1w3j_pocket.pdb
REMARK  150 active torsions:
REMARK  status: ('A' for Active; 'I' for Inactive)
REMARK    1  A    between atoms: _1  and  _3
REMARK    2  A    between atoms: _3  and  _4
REMARK    3  A    between atoms: _7  and  _9
REMARK    4  A    between atoms: _9  and  _10
REMARK    5  A    between atoms: _9  and  _12
REMARK    6  A    between atoms: _12  and  _13
REMARK    7  A    between atoms: _16  and  _18
REMARK    8  A    between atoms: _18  and  _19
REMARK    9  A    between atoms: _22  and  _24
REMARK   10  A    between atoms: _24  and  _25
REMARK   11  A    between atoms: _24  and  _27
REMARK   12  A    between atoms: _27  and  _28
REMARK   13  A    between atoms: _30  and  _32
REMARK   14  A    between atoms: _32  and  _33
REMARK   15  A    between atoms: _32  and  _35
REMARK   16  A    between atoms: _35  and  _36
REMARK   17  A    between atoms: _41  and  _42
REMARK   18  A    between atoms: _44  and  _46
REMARK   19  A    between atoms: _46  and  _47
REMARK   20  A    between atoms: _46  and  _49
REMARK   21  A    between atoms: _49  and  _50
REMARK   22  A    between atoms: _50  and  _51
REMARK   23  A    between atoms: _56  and  _58
REMARK   24  A    between atoms: _58  and  _59
REMARK   25  A    between atoms: _58  and  _61
REMARK   26  A    between atoms: _61  and  _62
REMARK   27  A    between atoms: _62  and  _63
REMARK   28  A    between atoms: _63  and  _64
REMARK   29  A    between atoms: _73  and  _75
REMARK   30  A    between atoms: _75  and  _76
REMARK   31  A    between atoms: _75  and  _78
REMARK   32  A    between atoms: _78  and  _79
REMARK   33  A    between atoms: _84  and  _86
REMARK   34  A    between atoms: _86  and  _87
REMARK   35  A    between atoms: _86  and  _89
REMARK   36  A    between atoms: _89  and  _90
REMARK   37  A    between atoms: _100  and  _102
REMARK   38  A    between atoms: _102  and  _103
REMARK   39  A    between atoms: _102  and  _105
REMARK   40  A    between atoms: _105  and  _106
REMARK   41  A    between atoms: _111  and  _113
REMARK   42  A    between atoms: _113  and  _114
REMARK   43  A    between atoms: _113  and  _116
REMARK   44  A    between atoms: _116  and  _117
REMARK   45  A    between atoms: _117  and  _118
REMARK   46  A    between atoms: _121  and  _123
REMARK   47  A    between atoms: _123  and  _124
REMARK   48  A    between atoms: _123  and  _126
REMARK   49  A    between atoms: _129  and  _131
REMARK   50  A    between atoms: _131  and  _132
REMARK   51  A    between atoms: _131  and  _134
REMARK   52  A    between atoms: _134  and  _135
REMARK   53  A    between atoms: _140  and  _142
REMARK   54  A    between atoms: _142  and  _143
REMARK   55  A    between atoms: _142  and  _145
REMARK   56  A    between atoms: _148  and  _150
REMARK   57  A    between atoms: _150  and  _151
REMARK   58  A    between atoms: _150  and  _153
REMARK   59  A    between atoms: _153  and  _154
REMARK   60  A    between atoms: _160  and  _162
REMARK   61  A    between atoms: _162  and  _163
REMARK   62  A    between atoms: _162  and  _165
REMARK   63  A    between atoms: _165  and  _166
REMARK   64  A    between atoms: _171  and  _173
REMARK   65  A    between atoms: _173  and  _174
REMARK   66  A    between atoms: _173  and  _176
REMARK   67  A    between atoms: _176  and  _177
REMARK   68  A    between atoms: _182  and  _184
REMARK   69  A    between atoms: _184  and  _185
REMARK   70  A    between atoms: _184  and  _187
REMARK   71  A    between atoms: _187  and  _188
REMARK   72  A    between atoms: _193  and  _195
REMARK   73  A    between atoms: _195  and  _196
REMARK   74  A    between atoms: _195  and  _198
REMARK   75  A    between atoms: _198  and  _199
REMARK   76  A    between atoms: _204  and  _205
REMARK   77  A    between atoms: _207  and  _209
REMARK   78  A    between atoms: _209  and  _210
REMARK   79  A    between atoms: _209  and  _212
REMARK   80  A    between atoms: _212  and  _213
REMARK   81  A    between atoms: _218  and  _219
REMARK   82  A    between atoms: _221  and  _223
REMARK   83  A    between atoms: _223  and  _224
REMARK   84  A    between atoms: _223  and  _226
REMARK   85  A    between atoms: _226  and  _227
REMARK   86  A    between atoms: _227  and  _228
REMARK   87  A    between atoms: _230  and  _232
REMARK   88  A    between atoms: _232  and  _233
REMARK   89  A    between atoms: _232  and  _235
REMARK   90  A    between atoms: _235  and  _236
REMARK   91  A    between atoms: _246  and  _248
REMARK   92  A    between atoms: _248  and  _249
REMARK   93  A    between atoms: _248  and  _251
REMARK   94  A    between atoms: _251  and  _252
REMARK   95  A    between atoms: _255  and  _257
REMARK   96  A    between atoms: _257  and  _258
REMARK   97  A    between atoms: _257  and  _260
REMARK   98  A    between atoms: _260  and  _261
REMARK   99  A    between atoms: _261  and  _262
REMARK  100  A    between atoms: _265  and  _267
REMARK  101  A    between atoms: _267  and  _268
REMARK  102  A    between atoms: _267  and  _270
REMARK  103  A    between atoms: _270  and  _271
REMARK  104  A    between atoms: _276  and  _278
REMARK  105  A    between atoms: _278  and  _279
REMARK  106  A    between atoms: _281  and  _283
REMARK  107  A    between atoms: _283  and  _284
REMARK  108  A    between atoms: _287  and  _289
REMARK  109  A    between atoms: _289  and  _290
REMARK  110  A    between atoms: _293  and  _295
REMARK  111  A    between atoms: _295  and  _296
REMARK  112  A    between atoms: _295  and  _298
REMARK  113  A    between atoms: _298  and  _299
REMARK  114  A    between atoms: _309  and  _311
REMARK  115  A    between atoms: _311  and  _312
REMARK  116  A    between atoms: _311  and  _314
REMARK  117  A    between atoms: _314  and  _315
REMARK  118  A    between atoms: _317  and  _319
REMARK  119  A    between atoms: _319  and  _320
REMARK  120  A    between atoms: _319  and  _322
REMARK  121  A    between atoms: _322  and  _323
REMARK  122  A    between atoms: _328  and  _330
REMARK  123  A    between atoms: _330  and  _331
REMARK  124  A    between atoms: _330  and  _333
REMARK  125  A    between atoms: _333  and  _334
REMARK  126  A    between atoms: _340  and  _342
REMARK  127  A    between atoms: _342  and  _343
REMARK  128  A    between atoms: _342  and  _345
REMARK  129  A    between atoms: _345  and  _346
REMARK  130  A    between atoms: _346  and  _347
REMARK  131  A    between atoms: _350  and  _352
REMARK  132  A    between atoms: _352  and  _353
REMARK  133  A    between atoms: _352  and  _355
REMARK  134  A    between atoms: _355  and  _356
REMARK  135  A    between atoms: _366  and  _368
REMARK  136  A    between atoms: _368  and  _369
REMARK  137  A    between atoms: _368  and  _371
REMARK  138  A    between atoms: _371  and  _372
REMARK  139  A    between atoms: _372  and  _373
REMARK  140  A    between atoms: _376  and  _378
REMARK  141  A    between atoms: _378  and  _379
REMARK  142  A    between atoms: _378  and  _381
REMARK  143  A    between atoms: _381  and  _382
REMARK  144  A    between atoms: _382  and  _383
REMARK  145  A    between atoms: _383  and  _384
REMARK  146  A    between atoms: _384  and  _385
REMARK  147  A    between atoms: _389  and  _391
REMARK  148  A    between atoms: _391  and  _392
REMARK  149  A    between atoms: _391  and  _394
REMARK  150  A    between atoms: _394  and  _395
REMARK                            x       y       z     vdW  Elec       q    Type
REMARK                         _______ _______ _______ _____ _____    ______ ____
ROOT
ATOM      1  CA  TRP A   1      -6.659  15.588   8.125  0.00  0.00    +0.149 C 
ENDROOT
BRANCH   1   2
ATOM      2  C   TRP A   1      -7.623  14.855   7.216  0.00  0.00    +0.239 C 
ATOM      3  O   TRP A   1      -8.297  13.953   7.696  0.00  0.00    -0.274 OA
ATOM      4  N   SER A   2      -7.708  15.202   5.935  0.00  0.00    -0.296 N 
ATOM      5  H   SER A   2      -8.446  14.737   5.368  0.00  0.00    +0.150 HD
BRANCH   4   6
ATOM      6  CA  SER A   2      -6.862  16.175   5.250  0.00  0.00    +0.166 C 
BRANCH   6   7
ATOM      7  C   SER A   2      -7.726  17.065   4.346  0.00  0.00    +0.229 C 
ATOM      8  O   SER A   2      -8.892  16.721   4.037  0.00  0.00    -0.286 OA
ENDBRANCH   6   7
BRANCH   6   9
ATOM      9  CB  SER A   2      -5.834  15.403   4.391  0.00  0.00    +0.165 C 
BRANCH   9  10
ATOM     10  OG  SER A   2      -4.999  16.270   3.643  0.00  0.00    -0.380 OA
ATOM     11  H   SER A   2      -4.501  16.861   4.261  0.00  0.00    +0.211 HD
ENDBRANCH   9  10
ENDBRANCH   6   9
ENDBRANCH   4   6
ENDBRANCH   1   2
BRANCH   1  12
ATOM     12  N   TRP A   1      -7.517  16.289   9.091  0.00  0.00    -0.238 NA
ATOM     13  H   TRP A   1      -7.876  15.785   9.927  0.00  0.00    +0.142 HD
ENDBRANCH   1  12
BRANCH   1  14
ATOM     14  CB  TRP A   1      -5.779  14.535   8.816  0.00  0.00    +0.054 C 
BRANCH  14  15
ATOM     15  CG  TRP A   1      -4.922  13.905   7.848  0.00  0.00    -0.002 A 
ATOM     16  CD2 TRP A   1      -3.699  14.441   7.359  0.00  0.00    +0.013 A 
ATOM     17  CE3 TRP A   1      -2.950  15.591   7.667  0.00  0.00    +0.001 A 
ATOM     18  CZ3 TRP A   1      -1.772  15.806   7.000  0.00  0.00    +0.000 A 
ATOM     19  CH2 TRP A   1      -1.313  14.908   6.024  0.00  0.00    +0.001 A 
ATOM     20  CZ2 TRP A   1      -2.025  13.788   5.691  0.00  0.00    +0.017 A 
ATOM     21  CE2 TRP A   1      -3.222  13.560   6.369  0.00  0.00    +0.056 A 
ATOM     22  NE1 TRP A   1      -4.128  12.529   6.254  0.00  0.00    -0.352 N 
ATOM     23  HE1 TRP A   1      -4.047  11.719   5.607  0.00  0.00    +0.166 HD
ATOM     24  CD1 TRP A   1      -5.159  12.751   7.138  0.00  0.00    +0.068 A 
ENDBRANCH  14  15
ENDBRANCH   1  14
TORSDOF 8
REMARK  Name = ../refined-set-2016/1w3j/1w3j_pocket.pdb
REMARK  150 active torsions:
REMARK  status: ('A' for Active; 'I' for Inactive)
REMARK    1  A    between atoms: _1  and  _3
REMARK    2  A    between atoms: _3  and  _4
REMARK    3  A    between atoms: _7  and  _9
REMARK    4  A    between atoms: _9  and  _10
REMARK    5  A    between atoms: _9  and  _12
REMARK    6  A    between atoms: _12  and  _13
REMARK    7  A    between atoms: _16  and  _18
REMARK    8  A    between atoms: _18  and  _19
REMARK    9  A    between atoms: _22  and  _24
REMARK   10  A    between atoms: _24  and  _25
REMARK   11  A    between atoms: _24  and  _27
REMARK   12  A    between atoms: _27  and  _28
REMARK   13  A    between atoms: _30  and  _32
REMARK   14  A    between atoms: _32  and  _33
REMARK   15  A    between atoms: _32  and  _35
REMARK   16  A    between atoms: _35  and  _36
REMARK   17  A    between atoms: _41  and  _42
REMARK   18  A    between atoms: _44  and  _46
REMARK   19  A    between atoms: _46  and  _47
REMARK   20  A    between atoms: _46  and  _49
REMARK   21  A    between atoms: _49  and  _50
REMARK   22  A    between atoms: _50  and  _51
REMARK   23  A    between atoms: _56  and  _58
REMARK   24  A    between atoms: _58  and  _59
REMARK   25  A    between atoms: _58  and  _61
REMARK   26  A    between atoms: _61  and  _62
REMARK   27  A    between atoms: _62  and  _63
REMARK   28  A    between atoms: _63  and  _64
REMARK   29  A    between atoms: _73  and  _75
REMARK   30  A    between atoms: _75  and  _76
REMARK   31  A    between atoms: _75  and  _78
REMARK   32  A    between atoms: _78  and  _79
REMARK   33  A    between atoms: _84  and  _86
REMARK   34  A    between atoms: _86  and  _87
REMARK   35  A    between atoms: _86  and  _89
REMARK   36  A    between atoms: _89  and  _90
REMARK   37  A    between atoms: _100  and  _102
REMARK   38  A    between atoms: _102  and  _103
REMARK   39  A    between atoms: _102  and  _105
REMARK   40  A    between atoms: _105  and  _106
REMARK   41  A    between atoms: _111  and  _113
REMARK   42  A    between atoms: _113  and  _114
REMARK   43  A    between atoms: _113  and  _116
REMARK   44  A    between atoms: _116  and  _117
REMARK   45  A    between atoms: _117  and  _118
REMARK   46  A    between atoms: _121  and  _123
REMARK   47  A    between atoms: _123  and  _124
REMARK   48  A    between atoms: _123  and  _126
REMARK   49  A    between atoms: _129  and  _131
REMARK   50  A    between atoms: _131  and  _132
REMARK   51  A    between atoms: _131  and  _134
REMARK   52  A    between atoms: _134  and  _135
REMARK   53  A    between atoms: _140  and  _142
REMARK   54  A    between atoms: _142  and  _143
REMARK   55  A    between atoms: _142  and  _145
REMARK   56  A    between atoms: _148  and  _150
REMARK   57  A    between atoms: _150  and  _151
REMARK   58  A    between atoms: _150  and  _153
REMARK   59  A    between atoms: _153  and  _154
REMARK   60  A    between atoms: _160  and  _162
REMARK   61  A    between atoms: _162  and  _163
REMARK   62  A    between atoms: _162  and  _165
REMARK   63  A    between atoms: _165  and  _166
REMARK   64  A    between atoms: _171  and  _173
REMARK   65  A    between atoms: _173  and  _174
REMARK   66  A    between atoms: _173  and  _176
REMARK   67  A    between atoms: _176  and  _177
REMARK   68  A    between atoms: _182  and  _184
REMARK   69  A    between atoms: _184  and  _185
REMARK   70  A    between atoms: _184  and  _187
REMARK   71  A    between atoms: _187  and  _188
REMARK   72  A    between atoms: _193  and  _195
REMARK   73  A    between atoms: _195  and  _196
REMARK   74  A    between atoms: _195  and  _198
REMARK   75  A    between atoms: _198  and  _199
REMARK   76  A    between atoms: _204  and  _205
REMARK   77  A    between atoms: _207  and  _209
REMARK   78  A    between atoms: _209  and  _210
REMARK   79  A    between atoms: _209  and  _212
REMARK   80  A    between atoms: _212  and  _213
REMARK   81  A    between atoms: _218  and  _219
REMARK   82  A    between atoms: _221  and  _223
REMARK   83  A    between atoms: _223  and  _224
REMARK   84  A    between atoms: _223  and  _226
REMARK   85  A    between atoms: _226  and  _227
REMARK   86  A    between atoms: _227  and  _228
REMARK   87  A    between atoms: _230  and  _232
REMARK   88  A    between atoms: _232  and  _233
REMARK   89  A    between atoms: _232  and  _235
REMARK   90  A    between atoms: _235  and  _236
REMARK   91  A    between atoms: _246  and  _248
REMARK   92  A    between atoms: _248  and  _249
REMARK   93  A    between atoms: _248  and  _251
REMARK   94  A    between atoms: _251  and  _252
REMARK   95  A    between atoms: _255  and  _257
REMARK   96  A    between atoms: _257  and  _258
REMARK   97  A    between atoms: _257  and  _260
REMARK   98  A    between atoms: _260  and  _261
REMARK   99  A    between atoms: _261  and  _262
REMARK  100  A    between atoms: _265  and  _267
REMARK  101  A    between atoms: _267  and  _268
REMARK  102  A    between atoms: _267  and  _270
REMARK  103  A    between atoms: _270  and  _271
REMARK  104  A    between atoms: _276  and  _278
REMARK  105  A    between atoms: _278  and  _279
REMARK  106  A    between atoms: _281  and  _283
REMARK  107  A    between atoms: _283  and  _284
REMARK  108  A    between atoms: _287  and  _289
REMARK  109  A    between atoms: _289  and  _290
REMARK  110  A    between atoms: _293  and  _295
REMARK  111  A    between atoms: _295  and  _296
REMARK  112  A    between atoms: _295  and  _298
REMARK  113  A    between atoms: _298  and  _299
REMARK  114  A    between atoms: _309  and  _311
REMARK  115  A    between atoms: _311  and  _312
REMARK  116  A    between atoms: _311  and  _314
REMARK  117  A    between atoms: _314  and  _315
REMARK  118  A    between atoms: _317  and  _319
REMARK  119  A    between atoms: _319  and  _320
REMARK  120  A    between atoms: _319  and  _322
REMARK  121  A    between atoms: _322  and  _323
REMARK  122  A    between atoms: _328  and  _330
REMARK  123  A    between atoms: _330  and  _331
REMARK  124  A    between atoms: _330  and  _333
REMARK  125  A    between atoms: _333  and  _334
REMARK  126  A    between atoms: _340  and  _342
REMARK  127  A    between atoms: _342  and  _343
REMARK  128  A    between atoms: _342  and  _345
REMARK  129  A    between atoms: _345  and  _346
REMARK  130  A    between atoms: _346  and  _347
REMARK  131  A    between atoms: _350  and  _352
REMARK  132  A    between atoms: _352  and  _353
REMARK  133  A    between atoms: _352  and  _355
REMARK  134  A    between atoms: _355  and  _356
REMARK  135  A    between atoms: _366  and  _368
REMARK  136  A    between atoms: _368  and  _369
REMARK  137  A    between atoms: _368  and  _371
REMARK  138  A    between atoms: _371  and  _372
REMARK  139  A    between atoms: _372  and  _373
REMARK  140  A    between atoms: _376  and  _378
REMARK  141  A    between atoms: _378  and  _379
REMARK  142  A    between atoms: _378  and  _381
REMARK  143  A    between atoms: _381  and  _382
REMARK  144  A    between atoms: _382  and  _383
REMARK  145  A    between atoms: _383  and  _384
REMARK  146  A    between atoms: _384  and  _385
REMARK  147  A    between atoms: _389  and  _391
REMARK  148  A    between atoms: _391  and  _392
REMARK  149  A    between atoms: _391  and  _394
REMARK  150  A    between atoms: _394  and  _395
REMARK                            x       y       z     vdW  Elec       q    Type
REMARK                         _______ _______ _______ _____ _____    ______ ____
ROOT
ATOM      1  C   PHE A   2      -0.363   9.101   0.815  0.00  0.00    +0.241 C 
ATOM      2  O   PHE A   2       0.293   9.748   1.605  0.00  0.00    -0.273 OA
ATOM      3  N   GLU A   3      -1.044   8.033   1.189  0.00  0.00    -0.297 N 
ATOM      4  H   GLU A   3      -1.587   7.496   0.483  0.00  0.00    +0.150 HD
ENDROOT
BRANCH   3   5
ATOM      5  CA  GLU A   3      -1.043   7.601   2.576  0.00  0.00    +0.149 C 
BRANCH   5   6
ATOM      6  C   GLU A   3       0.122   6.649   2.898  0.00  0.00    +0.241 C 
ATOM      7  O   GLU A   3      -0.084   5.500   3.321  0.00  0.00    -0.273 OA
ATOM      8  N   TRP A   4       1.341   7.149   2.661  0.00  0.00    -0.298 N 
ATOM      9  H   TRP A   4       1.408   8.055   2.155  0.00  0.00    +0.150 HD
BRANCH   8  10
ATOM     10  CA  TRP A   4       2.580   6.498   3.070  0.00  0.00    +0.141 C 
BRANCH  10  11
ATOM     11  C   TRP A   4       2.618   5.063   2.524  0.00  0.00    +0.227 C 
ATOM     12  O   TRP A   4       2.393   4.886   1.325  0.00  0.00    -0.286 OA
ENDBRANCH  10  11
BRANCH  10  13
ATOM     13  CB  TRP A   4       2.755   6.618   4.591  0.00  0.00    +0.056 C 
BRANCH  13  14
ATOM     14  CG  TRP A   4       2.707   8.065   5.010  0.00  0.00    -0.002 A 
ATOM     15  CD1 TRP A   4       1.775   8.655   5.813  0.00  0.00    +0.068 A 
ATOM     16  NE1 TRP A   4       2.066  10.002   5.972  0.00  0.00    -0.352 N 
ATOM     17  HE1 TRP A   4       1.529  10.670   6.562  0.00  0.00    +0.166 HD
ATOM     18  CE2 TRP A   4       3.180  10.314   5.224  0.00  0.00    +0.056 A 
ATOM     19  CZ2 TRP A   4       3.846  11.545   5.046  0.00  0.00    +0.017 A 
ATOM     20  CH2 TRP A   4       4.969  11.566   4.252  0.00  0.00    +0.001 A 
ATOM     21  CZ3 TRP A   4       5.457  10.388   3.627  0.00  0.00    +0.000 A 
ATOM     22  CE3 TRP A   4       4.764   9.156   3.774  0.00  0.00    +0.001 A 
ATOM     23  CD2 TRP A   4       3.616   9.115   4.601  0.00  0.00    +0.013 A 
ENDBRANCH  13  14
ENDBRANCH  10  13
ENDBRANCH   8  10
ENDBRANCH   5   6
BRANCH   5  24
ATOM     24  CB  GLU A   3      -2.423   7.044   2.977  0.00  0.00    +0.041 C 
BRANCH  24  25
ATOM     25  CG  GLU A   3      -2.523   6.493   4.420  0.00  0.00    +0.116 C 
BRANCH  25  26
ATOM     26  CD  GLU A   3      -2.223   7.531   5.505  0.00  0.00    +0.365 C 
ATOM     27  OE2 GLU A   3      -1.736   7.129   6.584  0.00  0.00    -0.246 OA
ATOM     28  OE1 GLU A   3      -2.484   8.742   5.285  0.00  0.00    -0.246 OA
ENDBRANCH  25  26
ENDBRANCH  24  25
ENDBRANCH   5  24
ENDBRANCH   3   5
BRANCH   1  29
ATOM     29  CA  PHE A   2      -0.426   9.477  -0.670  0.00  0.00    +0.153 C 
BRANCH  29  32
ATOM     30  C   ASN A   1      -2.614  10.620  -0.719  0.00  0.00    +0.239 C 
ATOM     31  O   ASN A   1      -3.236   9.609  -0.479  0.00  0.00    -0.274 OA
ATOM     32  N   PHE A   2      -1.294  10.640  -0.887  0.00  0.00    -0.297 N 
ATOM     33  H   PHE A   2      -0.852  11.531  -1.190  0.00  0.00    +0.150 HD
BRANCH  30  34
ATOM     34  CA  ASN A   1      -3.354  11.957  -0.869  0.00  0.00    +0.154 C 
BRANCH  34  35
ATOM     35  N   ASN A   1      -4.795  11.840  -0.599  0.00  0.00    -0.238 NA
ATOM     36  H   ASN A   1      -5.151  11.069   0.002  0.00  0.00    +0.142 HD
ENDBRANCH  34  35
BRANCH  34  37
ATOM     37  CB  ASN A   1      -2.723  13.082  -0.015  0.00  0.00    +0.111 C 
BRANCH  37  38
ATOM     38  CG  ASN A   1      -2.854  12.842   1.473  0.00  0.00    +0.221 C 
ATOM     39  ND2 ASN A   1      -3.464  13.787   2.182  0.00  0.00    -0.329 N 
ATOM     40 HD21 ASN A   1      -3.580  13.673   3.209  0.00  0.00    +0.145 HD
ATOM     41 HD22 ASN A   1      -3.825  14.640   1.709  0.00  0.00    +0.145 HD
ATOM     42  OD1 ASN A   1      -2.413  11.822   1.985  0.00  0.00    -0.275 OA
ENDBRANCH  37  38
ENDBRANCH  34  37
ENDBRANCH  30  34
ENDBRANCH  29  32
BRANCH  29  43
ATOM     43  CB  PHE A   2       0.962   9.816  -1.242  0.00  0.00    +0.055 C 
BRANCH  43  44
ATOM     44  CG  PHE A   2       2.028   8.762  -1.047  0.00  0.00    -0.020 A 
ATOM     45  CD2 PHE A   2       2.986   8.916  -0.039  0.00  0.00    -0.004 A 
ATOM     46  CE2 PHE A   2       4.005   7.959   0.131  0.00  0.00    -0.000 A 
ATOM     47  CZ  PHE A   2       4.094   6.854  -0.756  0.00  0.00    -0.000 A 
ATOM     48  CE1 PHE A   2       3.153   6.723  -1.790  0.00  0.00    -0.000 A 
ATOM     49  CD1 PHE A   2       2.143   7.679  -1.935  0.00  0.00    -0.004 A 
ENDBRANCH  43  44
ENDBRANCH  29  43
ENDBRANCH   1  29
TORSDOF 17
REMARK  Name = ../refined-set-2016/1w3j/1w3j_pocket.pdb
REMARK  150 active torsions:
REMARK  status: ('A' for Active; 'I' for Inactive)
REMARK    1  A    between atoms: _1  and  _3
REMARK    2  A    between atoms: _3  and  _4
REMARK    3  A    between atoms: _7  and  _9
REMARK    4  A    between atoms: _9  and  _10
REMARK    5  A    between atoms: _9  and  _12
REMARK    6  A    between atoms: _12  and  _13
REMARK    7  A    between atoms: _16  and  _18
REMARK    8  A    between atoms: _18  and  _19
REMARK    9  A    between atoms: _22  and  _24
REMARK   10  A    between atoms: _24  and  _25
REMARK   11  A    between atoms: _24  and  _27
REMARK   12  A    between atoms: _27  and  _28
REMARK   13  A    between atoms: _30  and  _32
REMARK   14  A    between atoms: _32  and  _33
REMARK   15  A    between atoms: _32  and  _35
REMARK   16  A    between atoms: _35  and  _36
REMARK   17  A    between atoms: _41  and  _42
REMARK   18  A    between atoms: _44  and  _46
REMARK   19  A    between atoms: _46  and  _47
REMARK   20  A    between atoms: _46  and  _49
REMARK   21  A    between atoms: _49  and  _50
REMARK   22  A    between atoms: _50  and  _51
REMARK   23  A    between atoms: _56  and  _58
REMARK   24  A    between atoms: _58  and  _59
REMARK   25  A    between atoms: _58  and  _61
REMARK   26  A    between atoms: _61  and  _62
REMARK   27  A    between atoms: _62  and  _63
REMARK   28  A    between atoms: _63  and  _64
REMARK   29  A    between atoms: _73  and  _75
REMARK   30  A    between atoms: _75  and  _76
REMARK   31  A    between atoms: _75  and  _78
REMARK   32  A    between atoms: _78  and  _79
REMARK   33  A    between atoms: _84  and  _86
REMARK   34  A    between atoms: _86  and  _87
REMARK   35  A    between atoms: _86  and  _89
REMARK   36  A    between atoms: _89  and  _90
REMARK   37  A    between atoms: _100  and  _102
REMARK   38  A    between atoms: _102  and  _103
REMARK   39  A    between atoms: _102  and  _105
REMARK   40  A    between atoms: _105  and  _106
REMARK   41  A    between atoms: _111  and  _113
REMARK   42  A    between atoms: _113  and  _114
REMARK   43  A    between atoms: _113  and  _116
REMARK   44  A    between atoms: _116  and  _117
REMARK   45  A    between atoms: _117  and  _118
REMARK   46  A    between atoms: _121  and  _123
REMARK   47  A    between atoms: _123  and  _124
REMARK   48  A    between atoms: _123  and  _126
REMARK   49  A    between atoms: _129  and  _131
REMARK   50  A    between atoms: _131  and  _132
REMARK   51  A    between atoms: _131  and  _134
REMARK   52  A    between atoms: _134  and  _135
REMARK   53  A    between atoms: _140  and  _142
REMARK   54  A    between atoms: _142  and  _143
REMARK   55  A    between atoms: _142  and  _145
REMARK   56  A    between atoms: _148  and  _150
REMARK   57  A    between atoms: _150  and  _151
REMARK   58  A    between atoms: _150  and  _153
REMARK   59  A    between atoms: _153  and  _154
REMARK   60  A    between atoms: _160  and  _162
REMARK   61  A    between atoms: _162  and  _163
REMARK   62  A    between atoms: _162  and  _165
REMARK   63  A    between atoms: _165  and  _166
REMARK   64  A    between atoms: _171  and  _173
REMARK   65  A    between atoms: _173  and  _174
REMARK   66  A    between atoms: _173  and  _176
REMARK   67  A    between atoms: _176  and  _177
REMARK   68  A    between atoms: _182  and  _184
REMARK   69  A    between atoms: _184  and  _185
REMARK   70  A    between atoms: _184  and  _187
REMARK   71  A    between atoms: _187  and  _188
REMARK   72  A    between atoms: _193  and  _195
REMARK   73  A    between atoms: _195  and  _196
REMARK   74  A    between atoms: _195  and  _198
REMARK   75  A    between atoms: _198  and  _199
REMARK   76  A    between atoms: _204  and  _205
REMARK   77  A    between atoms: _207  and  _209
REMARK   78  A    between atoms: _209  and  _210
REMARK   79  A    between atoms: _209  and  _212
REMARK   80  A    between atoms: _212  and  _213
REMARK   81  A    between atoms: _218  and  _219
REMARK   82  A    between atoms: _221  and  _223
REMARK   83  A    between atoms: _223  and  _224
REMARK   84  A    between atoms: _223  and  _226
REMARK   85  A    between atoms: _226  and  _227
REMARK   86  A    between atoms: _227  and  _228
REMARK   87  A    between atoms: _230  and  _232
REMARK   88  A    between atoms: _232  and  _233
REMARK   89  A    between atoms: _232  and  _235
REMARK   90  A    between atoms: _235  and  _236
REMARK   91  A    between atoms: _246  and  _248
REMARK   92  A    between atoms: _248  and  _249
REMARK   93  A    between atoms: _248  and  _251
REMARK   94  A    between atoms: _251  and  _252
REMARK   95  A    between atoms: _255  and  _257
REMARK   96  A    between atoms: _257  and  _258
REMARK   97  A    between atoms: _257  and  _260
REMARK   98  A    between atoms: _260  and  _261
REMARK   99  A    between atoms: _261  and  _262
REMARK  100  A    between atoms: _265  and  _267
REMARK  101  A    between atoms: _267  and  _268
REMARK  102  A    between atoms: _267  and  _270
REMARK  103  A    between atoms: _270  and  _271
REMARK  104  A    between atoms: _276  and  _278
REMARK  105  A    between atoms: _278  and  _279
REMARK  106  A    between atoms: _281  and  _283
REMARK  107  A    between atoms: _283  and  _284
REMARK  108  A    between atoms: _287  and  _289
REMARK  109  A    between atoms: _289  and  _290
REMARK  110  A    between atoms: _293  and  _295
REMARK  111  A    between atoms: _295  and  _296
REMARK  112  A    between atoms: _295  and  _298
REMARK  113  A    between atoms: _298  and  _299
REMARK  114  A    between atoms: _309  and  _311
REMARK  115  A    between atoms: _311  and  _312
REMARK  116  A    between atoms: _311  and  _314
REMARK  117  A    between atoms: _314  and  _315
REMARK  118  A    between atoms: _317  and  _319
REMARK  119  A    between atoms: _319  and  _320
REMARK  120  A    between atoms: _319  and  _322
REMARK  121  A    between atoms: _322  and  _323
REMARK  122  A    between atoms: _328  and  _330
REMARK  123  A    between atoms: _330  and  _331
REMARK  124  A    between atoms: _330  and  _333
REMARK  125  A    between atoms: _333  and  _334
REMARK  126  A    between atoms: _340  and  _342
REMARK  127  A    between atoms: _342  and  _343
REMARK  128  A    between atoms: _342  and  _345
REMARK  129  A    between atoms: _345  and  _346
REMARK  130  A    between atoms: _346  and  _347
REMARK  131  A    between atoms: _350  and  _352
REMARK  132  A    between atoms: _352  and  _353
REMARK  133  A    between atoms: _352  and  _355
REMARK  134  A    between atoms: _355  and  _356
REMARK  135  A    between atoms: _366  and  _368
REMARK  136  A    between atoms: _368  and  _369
REMARK  137  A    between atoms: _368  and  _371
REMARK  138  A    between atoms: _371  and  _372
REMARK  139  A    between atoms: _372  and  _373
REMARK  140  A    between atoms: _376  and  _378
REMARK  141  A    between atoms: _378  and  _379
REMARK  142  A    between atoms: _378  and  _381
REMARK  143  A    between atoms: _381  and  _382
REMARK  144  A    between atoms: _382  and  _383
REMARK  145  A    between atoms: _383  and  _384
REMARK  146  A    between atoms: _384  and  _385
REMARK  147  A    between atoms: _389  and  _391
REMARK  148  A    between atoms: _391  and  _392
REMARK  149  A    between atoms: _391  and  _394
REMARK  150  A    between atoms: _394  and  _395
REMARK                            x       y       z     vdW  Elec       q    Type
REMARK                         _______ _______ _______ _____ _____    ______ ____
ROOT
ATOM      1  CA  GLU A   1      -0.706   2.340   1.978  0.00  0.00    +0.134 C 
ENDROOT
BRANCH   1   2
ATOM      2  N   GLU A   1       0.568   2.720   2.598  0.00  0.00    -0.239 NA
ATOM      3  H   GLU A   1       0.589   3.516   3.266  0.00  0.00    +0.142 HD
ENDBRANCH   1   2
BRANCH   1   4
ATOM      4  C   GLU A   1      -0.891   2.936   0.584  0.00  0.00    +0.224 C 
ATOM      5  O   GLU A   1      -1.808   2.537  -0.156  0.00  0.00    -0.287 OA
ENDBRANCH   1   4
BRANCH   1   6
ATOM      6  CB  GLU A   1      -1.876   2.784   2.865  0.00  0.00    +0.037 C 
BRANCH   6   7
ATOM      7  CG  GLU A   1      -1.892   2.130   4.196  0.00  0.00    +0.116 C 
BRANCH   7   8
ATOM      8  CD  GLU A   1      -2.275   0.671   4.063  0.00  0.00    +0.365 C 
ATOM      9  OE2 GLU A   1      -1.612  -0.180   4.705  0.00  0.00    -0.246 OA
ATOM     10  OE1 GLU A   1      -3.235   0.388   3.293  0.00  0.00    -0.246 OA
ENDBRANCH   7   8
ENDBRANCH   6   7
ENDBRANCH   1   6
TORSDOF 5
REMARK  Name = ../refined-set-2016/1w3j/1w3j_pocket.pdb
REMARK  150 active torsions:
REMARK  status: ('A' for Active; 'I' for Inactive)
REMARK    1  A    between atoms: _1  and  _3
REMARK    2  A    between atoms: _3  and  _4
REMARK    3  A    between atoms: _7  and  _9
REMARK    4  A    between atoms: _9  and  _10
REMARK    5  A    between atoms: _9  and  _12
REMARK    6  A    between atoms: _12  and  _13
REMARK    7  A    between atoms: _16  and  _18
REMARK    8  A    between atoms: _18  and  _19
REMARK    9  A    between atoms: _22  and  _24
REMARK   10  A    between atoms: _24  and  _25
REMARK   11  A    between atoms: _24  and  _27
REMARK   12  A    between atoms: _27  and  _28
REMARK   13  A    between atoms: _30  and  _32
REMARK   14  A    between atoms: _32  and  _33
REMARK   15  A    between atoms: _32  and  _35
REMARK   16  A    between atoms: _35  and  _36
REMARK   17  A    between atoms: _41  and  _42
REMARK   18  A    between atoms: _44  and  _46
REMARK   19  A    between atoms: _46  and  _47
REMARK   20  A    between atoms: _46  and  _49
REMARK   21  A    between atoms: _49  and  _50
REMARK   22  A    between atoms: _50  and  _51
REMARK   23  A    between atoms: _56  and  _58
REMARK   24  A    between atoms: _58  and  _59
REMARK   25  A    between atoms: _58  and  _61
REMARK   26  A    between atoms: _61  and  _62
REMARK   27  A    between atoms: _62  and  _63
REMARK   28  A    between atoms: _63  and  _64
REMARK   29  A    between atoms: _73  and  _75
REMARK   30  A    between atoms: _75  and  _76
REMARK   31  A    between atoms: _75  and  _78
REMARK   32  A    between atoms: _78  and  _79
REMARK   33  A    between atoms: _84  and  _86
REMARK   34  A    between atoms: _86  and  _87
REMARK   35  A    between atoms: _86  and  _89
REMARK   36  A    between atoms: _89  and  _90
REMARK   37  A    between atoms: _100  and  _102
REMARK   38  A    between atoms: _102  and  _103
REMARK   39  A    between atoms: _102  and  _105
REMARK   40  A    between atoms: _105  and  _106
REMARK   41  A    between atoms: _111  and  _113
REMARK   42  A    between atoms: _113  and  _114
REMARK   43  A    between atoms: _113  and  _116
REMARK   44  A    between atoms: _116  and  _117
REMARK   45  A    between atoms: _117  and  _118
REMARK   46  A    between atoms: _121  and  _123
REMARK   47  A    between atoms: _123  and  _124
REMARK   48  A    between atoms: _123  and  _126
REMARK   49  A    between atoms: _129  and  _131
REMARK   50  A    between atoms: _131  and  _132
REMARK   51  A    between atoms: _131  and  _134
REMARK   52  A    between atoms: _134  and  _135
REMARK   53  A    between atoms: _140  and  _142
REMARK   54  A    between atoms: _142  and  _143
REMARK   55  A    between atoms: _142  and  _145
REMARK   56  A    between atoms: _148  and  _150
REMARK   57  A    between atoms: _150  and  _151
REMARK   58  A    between atoms: _150  and  _153
REMARK   59  A    between atoms: _153  and  _154
REMARK   60  A    between atoms: _160  and  _162
REMARK   61  A    between atoms: _162  and  _163
REMARK   62  A    between atoms: _162  and  _165
REMARK   63  A    between atoms: _165  and  _166
REMARK   64  A    between atoms: _171  and  _173
REMARK   65  A    between atoms: _173  and  _174
REMARK   66  A    between atoms: _173  and  _176
REMARK   67  A    between atoms: _176  and  _177
REMARK   68  A    between atoms: _182  and  _184
REMARK   69  A    between atoms: _184  and  _185
REMARK   70  A    between atoms: _184  and  _187
REMARK   71  A    between atoms: _187  and  _188
REMARK   72  A    between atoms: _193  and  _195
REMARK   73  A    between atoms: _195  and  _196
REMARK   74  A    between atoms: _195  and  _198
REMARK   75  A    between atoms: _198  and  _199
REMARK   76  A    between atoms: _204  and  _205
REMARK   77  A    between atoms: _207  and  _209
REMARK   78  A    between atoms: _209  and  _210
REMARK   79  A    between atoms: _209  and  _212
REMARK   80  A    between atoms: _212  and  _213
REMARK   81  A    between atoms: _218  and  _219
REMARK   82  A    between atoms: _221  and  _223
REMARK   83  A    between atoms: _223  and  _224
REMARK   84  A    between atoms: _223  and  _226
REMARK   85  A    between atoms: _226  and  _227
REMARK   86  A    between atoms: _227  and  _228
REMARK   87  A    between atoms: _230  and  _232
REMARK   88  A    between atoms: _232  and  _233
REMARK   89  A    between atoms: _232  and  _235
REMARK   90  A    between atoms: _235  and  _236
REMARK   91  A    between atoms: _246  and  _248
REMARK   92  A    between atoms: _248  and  _249
REMARK   93  A    between atoms: _248  and  _251
REMARK   94  A    between atoms: _251  and  _252
REMARK   95  A    between atoms: _255  and  _257
REMARK   96  A    between atoms: _257  and  _258
REMARK   97  A    between atoms: _257  and  _260
REMARK   98  A    between atoms: _260  and  _261
REMARK   99  A    between atoms: _261  and  _262
REMARK  100  A    between atoms: _265  and  _267
REMARK  101  A    between atoms: _267  and  _268
REMARK  102  A    between atoms: _267  and  _270
REMARK  103  A    between atoms: _270  and  _271
REMARK  104  A    between atoms: _276  and  _278
REMARK  105  A    between atoms: _278  and  _279
REMARK  106  A    between atoms: _281  and  _283
REMARK  107  A    between atoms: _283  and  _284
REMARK  108  A    between atoms: _287  and  _289
REMARK  109  A    between atoms: _289  and  _290
REMARK  110  A    between atoms: _293  and  _295
REMARK  111  A    between atoms: _295  and  _296
REMARK  112  A    between atoms: _295  and  _298
REMARK  113  A    between atoms: _298  and  _299
REMARK  114  A    between atoms: _309  and  _311
REMARK  115  A    between atoms: _311  and  _312
REMARK  116  A    between atoms: _311  and  _314
REMARK  117  A    between atoms: _314  and  _315
REMARK  118  A    between atoms: _317  and  _319
REMARK  119  A    between atoms: _319  and  _320
REMARK  120  A    between atoms: _319  and  _322
REMARK  121  A    between atoms: _322  and  _323
REMARK  122  A    between atoms: _328  and  _330
REMARK  123  A    between atoms: _330  and  _331
REMARK  124  A    between atoms: _330  and  _333
REMARK  125  A    between atoms: _333  and  _334
REMARK  126  A    between atoms: _340  and  _342
REMARK  127  A    between atoms: _342  and  _343
REMARK  128  A    between atoms: _342  and  _345
REMARK  129  A    between atoms: _345  and  _346
REMARK  130  A    between atoms: _346  and  _347
REMARK  131  A    between atoms: _350  and  _352
REMARK  132  A    between atoms: _352  and  _353
REMARK  133  A    between atoms: _352  and  _355
REMARK  134  A    between atoms: _355  and  _356
REMARK  135  A    between atoms: _366  and  _368
REMARK  136  A    between atoms: _368  and  _369
REMARK  137  A    between atoms: _368  and  _371
REMARK  138  A    between atoms: _371  and  _372
REMARK  139  A    between atoms: _372  and  _373
REMARK  140  A    between atoms: _376  and  _378
REMARK  141  A    between atoms: _378  and  _379
REMARK  142  A    between atoms: _378  and  _381
REMARK  143  A    between atoms: _381  and  _382
REMARK  144  A    between atoms: _382  and  _383
REMARK  145  A    between atoms: _383  and  _384
REMARK  146  A    between atoms: _384  and  _385
REMARK  147  A    between atoms: _389  and  _391
REMARK  148  A    between atoms: _391  and  _392
REMARK  149  A    between atoms: _391  and  _394
REMARK  150  A    between atoms: _394  and  _395
REMARK                            x       y       z     vdW  Elec       q    Type
REMARK                         _______ _______ _______ _____ _____    ______ ____
ROOT
ATOM      1  CG  LYS A   1      -5.630   3.563   3.211  0.00  0.00    -0.000 C 
ENDROOT
BRANCH   1   2
ATOM      2  CB  LYS A   1      -5.977   5.035   2.980  0.00  0.00    +0.025 C 
BRANCH   2   3
ATOM      3  CA  LYS A   1      -6.656   5.299   1.636  0.00  0.00    +0.133 C 
BRANCH   3   4
ATOM      4  N   LYS A   1      -5.897   4.724   0.524  0.00  0.00    -0.239 NA
ATOM      5  H   LYS A   1      -4.910   5.015   0.377  0.00  0.00    +0.142 HD
ENDBRANCH   3   4
BRANCH   3   6
ATOM      6  C   LYS A   1      -6.909   6.785   1.421  0.00  0.00    +0.224 C 
ATOM      7  O   LYS A   1      -6.000   7.559   1.196  0.00  0.00    -0.287 OA
ENDBRANCH   3   6
ENDBRANCH   2   3
ENDBRANCH   1   2
BRANCH   1   8
ATOM      8  CD  LYS A   1      -6.871   2.672   3.177  0.00  0.00    -0.024 C 
BRANCH   8   9
ATOM      9  CE  LYS A   1      -6.535   1.193   2.836  0.00  0.00    -0.086 C 
BRANCH   9  10
ATOM     10  NZ  LYS A   1      -6.063   0.501   4.037  0.00  0.00    +0.380 N 
ATOM     11  HZ1 LYS A   1      -6.806   0.526   4.765  0.00  0.00    -0.089 HD
ATOM     12  HZ2 LYS A   1      -5.209   0.974   4.395  0.00  0.00    -0.089 HD
ATOM     13  HZ3 LYS A   1      -5.840  -0.487   3.801  0.00  0.00    -0.089 HD
ENDBRANCH   9  10
ENDBRANCH   8   9
ENDBRANCH   1   8
TORSDOF 7
REMARK  Name = ../refined-set-2016/1w3j/1w3j_pocket.pdb
REMARK  150 active torsions:
REMARK  status: ('A' for Active; 'I' for Inactive)
REMARK    1  A    between atoms: _1  and  _3
REMARK    2  A    between atoms: _3  and  _4
REMARK    3  A    between atoms: _7  and  _9
REMARK    4  A    between atoms: _9  and  _10
REMARK    5  A    between atoms: _9  and  _12
REMARK    6  A    between atoms: _12  and  _13
REMARK    7  A    between atoms: _16  and  _18
REMARK    8  A    between atoms: _18  and  _19
REMARK    9  A    between atoms: _22  and  _24
REMARK   10  A    between atoms: _24  and  _25
REMARK   11  A    between atoms: _24  and  _27
REMARK   12  A    between atoms: _27  and  _28
REMARK   13  A    between atoms: _30  and  _32
REMARK   14  A    between atoms: _32  and  _33
REMARK   15  A    between atoms: _32  and  _35
REMARK   16  A    between atoms: _35  and  _36
REMARK   17  A    between atoms: _41  and  _42
REMARK   18  A    between atoms: _44  and  _46
REMARK   19  A    between atoms: _46  and  _47
REMARK   20  A    between atoms: _46  and  _49
REMARK   21  A    between atoms: _49  and  _50
REMARK   22  A    between atoms: _50  and  _51
REMARK   23  A    between atoms: _56  and  _58
REMARK   24  A    between atoms: _58  and  _59
REMARK   25  A    between atoms: _58  and  _61
REMARK   26  A    between atoms: _61  and  _62
REMARK   27  A    between atoms: _62  and  _63
REMARK   28  A    between atoms: _63  and  _64
REMARK   29  A    between atoms: _73  and  _75
REMARK   30  A    between atoms: _75  and  _76
REMARK   31  A    between atoms: _75  and  _78
REMARK   32  A    between atoms: _78  and  _79
REMARK   33  A    between atoms: _84  and  _86
REMARK   34  A    between atoms: _86  and  _87
REMARK   35  A    between atoms: _86  and  _89
REMARK   36  A    between atoms: _89  and  _90
REMARK   37  A    between atoms: _100  and  _102
REMARK   38  A    between atoms: _102  and  _103
REMARK   39  A    between atoms: _102  and  _105
REMARK   40  A    between atoms: _105  and  _106
REMARK   41  A    between atoms: _111  and  _113
REMARK   42  A    between atoms: _113  and  _114
REMARK   43  A    between atoms: _113  and  _116
REMARK   44  A    between atoms: _116  and  _117
REMARK   45  A    between atoms: _117  and  _118
REMARK   46  A    between atoms: _121  and  _123
REMARK   47  A    between atoms: _123  and  _124
REMARK   48  A    between atoms: _123  and  _126
REMARK   49  A    between atoms: _129  and  _131
REMARK   50  A    between atoms: _131  and  _132
REMARK   51  A    between atoms: _131  and  _134
REMARK   52  A    between atoms: _134  and  _135
REMARK   53  A    between atoms: _140  and  _142
REMARK   54  A    between atoms: _142  and  _143
REMARK   55  A    between atoms: _142  and  _145
REMARK   56  A    between atoms: _148  and  _150
REMARK   57  A    between atoms: _150  and  _151
REMARK   58  A    between atoms: _150  and  _153
REMARK   59  A    between atoms: _153  and  _154
REMARK   60  A    between atoms: _160  and  _162
REMARK   61  A    between atoms: _162  and  _163
REMARK   62  A    between atoms: _162  and  _165
REMARK   63  A    between atoms: _165  and  _166
REMARK   64  A    between atoms: _171  and  _173
REMARK   65  A    between atoms: _173  and  _174
REMARK   66  A    between atoms: _173  and  _176
REMARK   67  A    between atoms: _176  and  _177
REMARK   68  A    between atoms: _182  and  _184
REMARK   69  A    between atoms: _184  and  _185
REMARK   70  A    between atoms: _184  and  _187
REMARK   71  A    between atoms: _187  and  _188
REMARK   72  A    between atoms: _193  and  _195
REMARK   73  A    between atoms: _195  and  _196
REMARK   74  A    between atoms: _195  and  _198
REMARK   75  A    between atoms: _198  and  _199
REMARK   76  A    between atoms: _204  and  _205
REMARK   77  A    between atoms: _207  and  _209
REMARK   78  A    between atoms: _209  and  _210
REMARK   79  A    between atoms: _209  and  _212
REMARK   80  A    between atoms: _212  and  _213
REMARK   81  A    between atoms: _218  and  _219
REMARK   82  A    between atoms: _221  and  _223
REMARK   83  A    between atoms: _223  and  _224
REMARK   84  A    between atoms: _223  and  _226
REMARK   85  A    between atoms: _226  and  _227
REMARK   86  A    between atoms: _227  and  _228
REMARK   87  A    between atoms: _230  and  _232
REMARK   88  A    between atoms: _232  and  _233
REMARK   89  A    between atoms: _232  and  _235
REMARK   90  A    between atoms: _235  and  _236
REMARK   91  A    between atoms: _246  and  _248
REMARK   92  A    between atoms: _248  and  _249
REMARK   93  A    between atoms: _248  and  _251
REMARK   94  A    between atoms: _251  and  _252
REMARK   95  A    between atoms: _255  and  _257
REMARK   96  A    between atoms: _257  and  _258
REMARK   97  A    between atoms: _257  and  _260
REMARK   98  A    between atoms: _260  and  _261
REMARK   99  A    between atoms: _261  and  _262
REMARK  100  A    between atoms: _265  and  _267
REMARK  101  A    between atoms: _267  and  _268
REMARK  102  A    between atoms: _267  and  _270
REMARK  103  A    between atoms: _270  and  _271
REMARK  104  A    between atoms: _276  and  _278
REMARK  105  A    between atoms: _278  and  _279
REMARK  106  A    between atoms: _281  and  _283
REMARK  107  A    between atoms: _283  and  _284
REMARK  108  A    between atoms: _287  and  _289
REMARK  109  A    between atoms: _289  and  _290
REMARK  110  A    between atoms: _293  and  _295
REMARK  111  A    between atoms: _295  and  _296
REMARK  112  A    between atoms: _295  and  _298
REMARK  113  A    between atoms: _298  and  _299
REMARK  114  A    between atoms: _309  and  _311
REMARK  115  A    between atoms: _311  and  _312
REMARK  116  A    between atoms: _311  and  _314
REMARK  117  A    between atoms: _314  and  _315
REMARK  118  A    between atoms: _317  and  _319
REMARK  119  A    between atoms: _319  and  _320
REMARK  120  A    between atoms: _319  and  _322
REMARK  121  A    between atoms: _322  and  _323
REMARK  122  A    between atoms: _328  and  _330
REMARK  123  A    between atoms: _330  and  _331
REMARK  124  A    between atoms: _330  and  _333
REMARK  125  A    between atoms: _333  and  _334
REMARK  126  A    between atoms: _340  and  _342
REMARK  127  A    between atoms: _342  and  _343
REMARK  128  A    between atoms: _342  and  _345
REMARK  129  A    between atoms: _345  and  _346
REMARK  130  A    between atoms: _346  and  _347
REMARK  131  A    between atoms: _350  and  _352
REMARK  132  A    between atoms: _352  and  _353
REMARK  133  A    between atoms: _352  and  _355
REMARK  134  A    between atoms: _355  and  _356
REMARK  135  A    between atoms: _366  and  _368
REMARK  136  A    between atoms: _368  and  _369
REMARK  137  A    between atoms: _368  and  _371
REMARK  138  A    between atoms: _371  and  _372
REMARK  139  A    between atoms: _372  and  _373
REMARK  140  A    between atoms: _376  and  _378
REMARK  141  A    between atoms: _378  and  _379
REMARK  142  A    between atoms: _378  and  _381
REMARK  143  A    between atoms: _381  and  _382
REMARK  144  A    between atoms: _382  and  _383
REMARK  145  A    between atoms: _383  and  _384
REMARK  146  A    between atoms: _384  and  _385
REMARK  147  A    between atoms: _389  and  _391
REMARK  148  A    between atoms: _391  and  _392
REMARK  149  A    between atoms: _391  and  _394
REMARK  150  A    between atoms: _394  and  _395
REMARK                            x       y       z     vdW  Elec       q    Type
REMARK                         _______ _______ _______ _____ _____    ______ ____
ROOT
ATOM      1  CB  PHE A   1      -7.324  11.159   4.998  0.00  0.00    +0.051 C 
ENDROOT
BRANCH   1   2
ATOM      2  CG  PHE A   1      -6.961  10.002   5.862  0.00  0.00    -0.020 A 
ATOM      3  CD2 PHE A   1      -7.363   9.962   7.190  0.00  0.00    -0.004 A 
ATOM      4  CE2 PHE A   1      -7.013   8.893   8.010  0.00  0.00    -0.000 A 
ATOM      5  CZ  PHE A   1      -6.260   7.837   7.501  0.00  0.00    -0.000 A 
ATOM      6  CE1 PHE A   1      -5.858   7.859   6.167  0.00  0.00    -0.000 A 
ATOM      7  CD1 PHE A   1      -6.188   8.946   5.365  0.00  0.00    -0.004 A 
ENDBRANCH   1   2
BRANCH   1   8
ATOM      8  CA  PHE A   1      -8.591  10.953   4.135  0.00  0.00    +0.137 C 
BRANCH   8   9
ATOM      9  N   PHE A   1      -8.285  10.201   2.907  0.00  0.00    -0.239 NA
ATOM     10  H   PHE A   1      -7.425  10.446   2.376  0.00  0.00    +0.142 HD
ENDBRANCH   8   9
BRANCH   8  11
ATOM     11  C   PHE A   1      -9.198  12.344   3.870  0.00  0.00    +0.224 C 
ATOM     12  O   PHE A   1      -9.529  13.041   4.819  0.00  0.00    -0.287 OA
ENDBRANCH   8  11
ENDBRANCH   1   8
TORSDOF 4
REMARK  Name = ../refined-set-2016/1w3j/1w3j_pocket.pdb
REMARK  150 active torsions:
REMARK  status: ('A' for Active; 'I' for Inactive)
REMARK    1  A    between atoms: _1  and  _3
REMARK    2  A    between atoms: _3  and  _4
REMARK    3  A    between atoms: _7  and  _9
REMARK    4  A    between atoms: _9  and  _10
REMARK    5  A    between atoms: _9  and  _12
REMARK    6  A    between atoms: _12  and  _13
REMARK    7  A    between atoms: _16  and  _18
REMARK    8  A    between atoms: _18  and  _19
REMARK    9  A    between atoms: _22  and  _24
REMARK   10  A    between atoms: _24  and  _25
REMARK   11  A    between atoms: _24  and  _27
REMARK   12  A    between atoms: _27  and  _28
REMARK   13  A    between atoms: _30  and  _32
REMARK   14  A    between atoms: _32  and  _33
REMARK   15  A    between atoms: _32  and  _35
REMARK   16  A    between atoms: _35  and  _36
REMARK   17  A    between atoms: _41  and  _42
REMARK   18  A    between atoms: _44  and  _46
REMARK   19  A    between atoms: _46  and  _47
REMARK   20  A    between atoms: _46  and  _49
REMARK   21  A    between atoms: _49  and  _50
REMARK   22  A    between atoms: _50  and  _51
REMARK   23  A    between atoms: _56  and  _58
REMARK   24  A    between atoms: _58  and  _59
REMARK   25  A    between atoms: _58  and  _61
REMARK   26  A    between atoms: _61  and  _62
REMARK   27  A    between atoms: _62  and  _63
REMARK   28  A    between atoms: _63  and  _64
REMARK   29  A    between atoms: _73  and  _75
REMARK   30  A    between atoms: _75  and  _76
REMARK   31  A    between atoms: _75  and  _78
REMARK   32  A    between atoms: _78  and  _79
REMARK   33  A    between atoms: _84  and  _86
REMARK   34  A    between atoms: _86  and  _87
REMARK   35  A    between atoms: _86  and  _89
REMARK   36  A    between atoms: _89  and  _90
REMARK   37  A    between atoms: _100  and  _102
REMARK   38  A    between atoms: _102  and  _103
REMARK   39  A    between atoms: _102  and  _105
REMARK   40  A    between atoms: _105  and  _106
REMARK   41  A    between atoms: _111  and  _113
REMARK   42  A    between atoms: _113  and  _114
REMARK   43  A    between atoms: _113  and  _116
REMARK   44  A    between atoms: _116  and  _117
REMARK   45  A    between atoms: _117  and  _118
REMARK   46  A    between atoms: _121  and  _123
REMARK   47  A    between atoms: _123  and  _124
REMARK   48  A    between atoms: _123  and  _126
REMARK   49  A    between atoms: _129  and  _131
REMARK   50  A    between atoms: _131  and  _132
REMARK   51  A    between atoms: _131  and  _134
REMARK   52  A    between atoms: _134  and  _135
REMARK   53  A    between atoms: _140  and  _142
REMARK   54  A    between atoms: _142  and  _143
REMARK   55  A    between atoms: _142  and  _145
REMARK   56  A    between atoms: _148  and  _150
REMARK   57  A    between atoms: _150  and  _151
REMARK   58  A    between atoms: _150  and  _153
REMARK   59  A    between atoms: _153  and  _154
REMARK   60  A    between atoms: _160  and  _162
REMARK   61  A    between atoms: _162  and  _163
REMARK   62  A    between atoms: _162  and  _165
REMARK   63  A    between atoms: _165  and  _166
REMARK   64  A    between atoms: _171  and  _173
REMARK   65  A    between atoms: _173  and  _174
REMARK   66  A    between atoms: _173  and  _176
REMARK   67  A    between atoms: _176  and  _177
REMARK   68  A    between atoms: _182  and  _184
REMARK   69  A    between atoms: _184  and  _185
REMARK   70  A    between atoms: _184  and  _187
REMARK   71  A    between atoms: _187  and  _188
REMARK   72  A    between atoms: _193  and  _195
REMARK   73  A    between atoms: _195  and  _196
REMARK   74  A    between atoms: _195  and  _198
REMARK   75  A    between atoms: _198  and  _199
REMARK   76  A    between atoms: _204  and  _205
REMARK   77  A    between atoms: _207  and  _209
REMARK   78  A    between atoms: _209  and  _210
REMARK   79  A    between atoms: _209  and  _212
REMARK   80  A    between atoms: _212  and  _213
REMARK   81  A    between atoms: _218  and  _219
REMARK   82  A    between atoms: _221  and  _223
REMARK   83  A    between atoms: _223  and  _224
REMARK   84  A    between atoms: _223  and  _226
REMARK   85  A    between atoms: _226  and  _227
REMARK   86  A    between atoms: _227  and  _228
REMARK   87  A    between atoms: _230  and  _232
REMARK   88  A    between atoms: _232  and  _233
REMARK   89  A    between atoms: _232  and  _235
REMARK   90  A    between atoms: _235  and  _236
REMARK   91  A    between atoms: _246  and  _248
REMARK   92  A    between atoms: _248  and  _249
REMARK   93  A    between atoms: _248  and  _251
REMARK   94  A    between atoms: _251  and  _252
REMARK   95  A    between atoms: _255  and  _257
REMARK   96  A    between atoms: _257  and  _258
REMARK   97  A    between atoms: _257  and  _260
REMARK   98  A    between atoms: _260  and  _261
REMARK   99  A    between atoms: _261  and  _262
REMARK  100  A    between atoms: _265  and  _267
REMARK  101  A    between atoms: _267  and  _268
REMARK  102  A    between atoms: _267  and  _270
REMARK  103  A    between atoms: _270  and  _271
REMARK  104  A    between atoms: _276  and  _278
REMARK  105  A    between atoms: _278  and  _279
REMARK  106  A    between atoms: _281  and  _283
REMARK  107  A    between atoms: _283  and  _284
REMARK  108  A    between atoms: _287  and  _289
REMARK  109  A    between atoms: _289  and  _290
REMARK  110  A    between atoms: _293  and  _295
REMARK  111  A    between atoms: _295  and  _296
REMARK  112  A    between atoms: _295  and  _298
REMARK  113  A    between atoms: _298  and  _299
REMARK  114  A    between atoms: _309  and  _311
REMARK  115  A    between atoms: _311  and  _312
REMARK  116  A    between atoms: _311  and  _314
REMARK  117  A    between atoms: _314  and  _315
REMARK  118  A    between atoms: _317  and  _319
REMARK  119  A    between atoms: _319  and  _320
REMARK  120  A    between atoms: _319  and  _322
REMARK  121  A    between atoms: _322  and  _323
REMARK  122  A    between atoms: _328  and  _330
REMARK  123  A    between atoms: _330  and  _331
REMARK  124  A    between atoms: _330  and  _333
REMARK  125  A    between atoms: _333  and  _334
REMARK  126  A    between atoms: _340  and  _342
REMARK  127  A    between atoms: _342  and  _343
REMARK  128  A    between atoms: _342  and  _345
REMARK  129  A    between atoms: _345  and  _346
REMARK  130  A    between atoms: _346  and  _347
REMARK  131  A    between atoms: _350  and  _352
REMARK  132  A    between atoms: _352  and  _353
REMARK  133  A    between atoms: _352  and  _355
REMARK  134  A    between atoms: _355  and  _356
REMARK  135  A    between atoms: _366  and  _368
REMARK  136  A    between atoms: _368  and  _369
REMARK  137  A    between atoms: _368  and  _371
REMARK  138  A    between atoms: _371  and  _372
REMARK  139  A    between atoms: _372  and  _373
REMARK  140  A    between atoms: _376  and  _378
REMARK  141  A    between atoms: _378  and  _379
REMARK  142  A    between atoms: _378  and  _381
REMARK  143  A    between atoms: _381  and  _382
REMARK  144  A    between atoms: _382  and  _383
REMARK  145  A    between atoms: _383  and  _384
REMARK  146  A    between atoms: _384  and  _385
REMARK  147  A    between atoms: _389  and  _391
REMARK  148  A    between atoms: _391  and  _392
REMARK  149  A    between atoms: _391  and  _394
REMARK  150  A    between atoms: _394  and  _395
REMARK                            x       y       z     vdW  Elec       q    Type
REMARK                         _______ _______ _______ _____ _____    ______ ____
ROOT
ATOM      1  O   HOH     1       1.655   4.176  13.538  0.00  0.00    +0.000 OA
ENDROOT
TORSDOF 0
REMARK  Name = ../refined-set-2016/1w3j/1w3j_pocket.pdb
REMARK  150 active torsions:
REMARK  status: ('A' for Active; 'I' for Inactive)
REMARK    1  A    between atoms: _1  and  _3
REMARK    2  A    between atoms: _3  and  _4
REMARK    3  A    between atoms: _7  and  _9
REMARK    4  A    between atoms: _9  and  _10
REMARK    5  A    between atoms: _9  and  _12
REMARK    6  A    between atoms: _12  and  _13
REMARK    7  A    between atoms: _16  and  _18
REMARK    8  A    between atoms: _18  and  _19
REMARK    9  A    between atoms: _22  and  _24
REMARK   10  A    between atoms: _24  and  _25
REMARK   11  A    between atoms: _24  and  _27
REMARK   12  A    between atoms: _27  and  _28
REMARK   13  A    between atoms: _30  and  _32
REMARK   14  A    between atoms: _32  and  _33
REMARK   15  A    between atoms: _32  and  _35
REMARK   16  A    between atoms: _35  and  _36
REMARK   17  A    between atoms: _41  and  _42
REMARK   18  A    between atoms: _44  and  _46
REMARK   19  A    between atoms: _46  and  _47
REMARK   20  A    between atoms: _46  and  _49
REMARK   21  A    between atoms: _49  and  _50
REMARK   22  A    between atoms: _50  and  _51
REMARK   23  A    between atoms: _56  and  _58
REMARK   24  A    between atoms: _58  and  _59
REMARK   25  A    between atoms: _58  and  _61
REMARK   26  A    between atoms: _61  and  _62
REMARK   27  A    between atoms: _62  and  _63
REMARK   28  A    between atoms: _63  and  _64
REMARK   29  A    between atoms: _73  and  _75
REMARK   30  A    between atoms: _75  and  _76
REMARK   31  A    between atoms: _75  and  _78
REMARK   32  A    between atoms: _78  and  _79
REMARK   33  A    between atoms: _84  and  _86
REMARK   34  A    between atoms: _86  and  _87
REMARK   35  A    between atoms: _86  and  _89
REMARK   36  A    between atoms: _89  and  _90
REMARK   37  A    between atoms: _100  and  _102
REMARK   38  A    between atoms: _102  and  _103
REMARK   39  A    between atoms: _102  and  _105
REMARK   40  A    between atoms: _105  and  _106
REMARK   41  A    between atoms: _111  and  _113
REMARK   42  A    between atoms: _113  and  _114
REMARK   43  A    between atoms: _113  and  _116
REMARK   44  A    between atoms: _116  and  _117
REMARK   45  A    between atoms: _117  and  _118
REMARK   46  A    between atoms: _121  and  _123
REMARK   47  A    between atoms: _123  and  _124
REMARK   48  A    between atoms: _123  and  _126
REMARK   49  A    between atoms: _129  and  _131
REMARK   50  A    between atoms: _131  and  _132
REMARK   51  A    between atoms: _131  and  _134
REMARK   52  A    between atoms: _134  and  _135
REMARK   53  A    between atoms: _140  and  _142
REMARK   54  A    between atoms: _142  and  _143
REMARK   55  A    between atoms: _142  and  _145
REMARK   56  A    between atoms: _148  and  _150
REMARK   57  A    between atoms: _150  and  _151
REMARK   58  A    between atoms: _150  and  _153
REMARK   59  A    between atoms: _153  and  _154
REMARK   60  A    between atoms: _160  and  _162
REMARK   61  A    between atoms: _162  and  _163
REMARK   62  A    between atoms: _162  and  _165
REMARK   63  A    between atoms: _165  and  _166
REMARK   64  A    between atoms: _171  and  _173
REMARK   65  A    between atoms: _173  and  _174
REMARK   66  A    between atoms: _173  and  _176
REMARK   67  A    between atoms: _176  and  _177
REMARK   68  A    between atoms: _182  and  _184
REMARK   69  A    between atoms: _184  and  _185
REMARK   70  A    between atoms: _184  and  _187
REMARK   71  A    between atoms: _187  and  _188
REMARK   72  A    between atoms: _193  and  _195
REMARK   73  A    between atoms: _195  and  _196
REMARK   74  A    between atoms: _195  and  _198
REMARK   75  A    between atoms: _198  and  _199
REMARK   76  A    between atoms: _204  and  _205
REMARK   77  A    between atoms: _207  and  _209
REMARK   78  A    between atoms: _209  and  _210
REMARK   79  A    between atoms: _209  and  _212
REMARK   80  A    between atoms: _212  and  _213
REMARK   81  A    between atoms: _218  and  _219
REMARK   82  A    between atoms: _221  and  _223
REMARK   83  A    between atoms: _223  and  _224
REMARK   84  A    between atoms: _223  and  _226
REMARK   85  A    between atoms: _226  and  _227
REMARK   86  A    between atoms: _227  and  _228
REMARK   87  A    between atoms: _230  and  _232
REMARK   88  A    between atoms: _232  and  _233
REMARK   89  A    between atoms: _232  and  _235
REMARK   90  A    between atoms: _235  and  _236
REMARK   91  A    between atoms: _246  and  _248
REMARK   92  A    between atoms: _248  and  _249
REMARK   93  A    between atoms: _248  and  _251
REMARK   94  A    between atoms: _251  and  _252
REMARK   95  A    between atoms: _255  and  _257
REMARK   96  A    between atoms: _257  and  _258
REMARK   97  A    between atoms: _257  and  _260
REMARK   98  A    between atoms: _260  and  _261
REMARK   99  A    between atoms: _261  and  _262
REMARK  100  A    between atoms: _265  and  _267
REMARK  101  A    between atoms: _267  and  _268
REMARK  102  A    between atoms: _267  and  _270
REMARK  103  A    between atoms: _270  and  _271
REMARK  104  A    between atoms: _276  and  _278
REMARK  105  A    between atoms: _278  and  _279
REMARK  106  A    between atoms: _281  and  _283
REMARK  107  A    between atoms: _283  and  _284
REMARK  108  A    between atoms: _287  and  _289
REMARK  109  A    between atoms: _289  and  _290
REMARK  110  A    between atoms: _293  and  _295
REMARK  111  A    between atoms: _295  and  _296
REMARK  112  A    between atoms: _295  and  _298
REMARK  113  A    between atoms: _298  and  _299
REMARK  114  A    between atoms: _309  and  _311
REMARK  115  A    between atoms: _311  and  _312
REMARK  116  A    between atoms: _311  and  _314
REMARK  117  A    between atoms: _314  and  _315
REMARK  118  A    between atoms: _317  and  _319
REMARK  119  A    between atoms: _319  and  _320
REMARK  120  A    between atoms: _319  and  _322
REMARK  121  A    between atoms: _322  and  _323
REMARK  122  A    between atoms: _328  and  _330
REMARK  123  A    between atoms: _330  and  _331
REMARK  124  A    between atoms: _330  and  _333
REMARK  125  A    between atoms: _333  and  _334
REMARK  126  A    between atoms: _340  and  _342
REMARK  127  A    between atoms: _342  and  _343
REMARK  128  A    between atoms: _342  and  _345
REMARK  129  A    between atoms: _345  and  _346
REMARK  130  A    between atoms: _346  and  _347
REMARK  131  A    between atoms: _350  and  _352
REMARK  132  A    between atoms: _352  and  _353
REMARK  133  A    between atoms: _352  and  _355
REMARK  134  A    between atoms: _355  and  _356
REMARK  135  A    between atoms: _366  and  _368
REMARK  136  A    between atoms: _368  and  _369
REMARK  137  A    between atoms: _368  and  _371
REMARK  138  A    between atoms: _371  and  _372
REMARK  139  A    between atoms: _372  and  _373
REMARK  140  A    between atoms: _376  and  _378
REMARK  141  A    between atoms: _378  and  _379
REMARK  142  A    between atoms: _378  and  _381
REMARK  143  A    between atoms: _381  and  _382
REMARK  144  A    between atoms: _382  and  _383
REMARK  145  A    between atoms: _383  and  _384
REMARK  146  A    between atoms: _384  and  _385
REMARK  147  A    between atoms: _389  and  _391
REMARK  148  A    between atoms: _391  and  _392
REMARK  149  A    between atoms: _391  and  _394
REMARK  150  A    between atoms: _394  and  _395
REMARK                            x       y       z     vdW  Elec       q    Type
REMARK                         _______ _______ _______ _____ _____    ______ ____
ROOT
ATOM      1  O   HOH     1       1.040   4.588  11.415  0.00  0.00    +0.000 OA
ENDROOT
TORSDOF 0
REMARK  Name = ../refined-set-2016/1w3j/1w3j_pocket.pdb
REMARK  150 active torsions:
REMARK  status: ('A' for Active; 'I' for Inactive)
REMARK    1  A    between atoms: _1  and  _3
REMARK    2  A    between atoms: _3  and  _4
REMARK    3  A    between atoms: _7  and  _9
REMARK    4  A    between atoms: _9  and  _10
REMARK    5  A    between atoms: _9  and  _12
REMARK    6  A    between atoms: _12  and  _13
REMARK    7  A    between atoms: _16  and  _18
REMARK    8  A    between atoms: _18  and  _19
REMARK    9  A    between atoms: _22  and  _24
REMARK   10  A    between atoms: _24  and  _25
REMARK   11  A    between atoms: _24  and  _27
REMARK   12  A    between atoms: _27  and  _28
REMARK   13  A    between atoms: _30  and  _32
REMARK   14  A    between atoms: _32  and  _33
REMARK   15  A    between atoms: _32  and  _35
REMARK   16  A    between atoms: _35  and  _36
REMARK   17  A    between atoms: _41  and  _42
REMARK   18  A    between atoms: _44  and  _46
REMARK   19  A    between atoms: _46  and  _47
REMARK   20  A    between atoms: _46  and  _49
REMARK   21  A    between atoms: _49  and  _50
REMARK   22  A    between atoms: _50  and  _51
REMARK   23  A    between atoms: _56  and  _58
REMARK   24  A    between atoms: _58  and  _59
REMARK   25  A    between atoms: _58  and  _61
REMARK   26  A    between atoms: _61  and  _62
REMARK   27  A    between atoms: _62  and  _63
REMARK   28  A    between atoms: _63  and  _64
REMARK   29  A    between atoms: _73  and  _75
REMARK   30  A    between atoms: _75  and  _76
REMARK   31  A    between atoms: _75  and  _78
REMARK   32  A    between atoms: _78  and  _79
REMARK   33  A    between atoms: _84  and  _86
REMARK   34  A    between atoms: _86  and  _87
REMARK   35  A    between atoms: _86  and  _89
REMARK   36  A    between atoms: _89  and  _90
REMARK   37  A    between atoms: _100  and  _102
REMARK   38  A    between atoms: _102  and  _103
REMARK   39  A    between atoms: _102  and  _105
REMARK   40  A    between atoms: _105  and  _106
REMARK   41  A    between atoms: _111  and  _113
REMARK   42  A    between atoms: _113  and  _114
REMARK   43  A    between atoms: _113  and  _116
REMARK   44  A    between atoms: _116  and  _117
REMARK   45  A    between atoms: _117  and  _118
REMARK   46  A    between atoms: _121  and  _123
REMARK   47  A    between atoms: _123  and  _124
REMARK   48  A    between atoms: _123  and  _126
REMARK   49  A    between atoms: _129  and  _131
REMARK   50  A    between atoms: _131  and  _132
REMARK   51  A    between atoms: _131  and  _134
REMARK   52  A    between atoms: _134  and  _135
REMARK   53  A    between atoms: _140  and  _142
REMARK   54  A    between atoms: _142  and  _143
REMARK   55  A    between atoms: _142  and  _145
REMARK   56  A    between atoms: _148  and  _150
REMARK   57  A    between atoms: _150  and  _151
REMARK   58  A    between atoms: _150  and  _153
REMARK   59  A    between atoms: _153  and  _154
REMARK   60  A    between atoms: _160  and  _162
REMARK   61  A    between atoms: _162  and  _163
REMARK   62  A    between atoms: _162  and  _165
REMARK   63  A    between atoms: _165  and  _166
REMARK   64  A    between atoms: _171  and  _173
REMARK   65  A    between atoms: _173  and  _174
REMARK   66  A    between atoms: _173  and  _176
REMARK   67  A    between atoms: _176  and  _177
REMARK   68  A    between atoms: _182  and  _184
REMARK   69  A    between atoms: _184  and  _185
REMARK   70  A    between atoms: _184  and  _187
REMARK   71  A    between atoms: _187  and  _188
REMARK   72  A    between atoms: _193  and  _195
REMARK   73  A    between atoms: _195  and  _196
REMARK   74  A    between atoms: _195  and  _198
REMARK   75  A    between atoms: _198  and  _199
REMARK   76  A    between atoms: _204  and  _205
REMARK   77  A    between atoms: _207  and  _209
REMARK   78  A    between atoms: _209  and  _210
REMARK   79  A    between atoms: _209  and  _212
REMARK   80  A    between atoms: _212  and  _213
REMARK   81  A    between atoms: _218  and  _219
REMARK   82  A    between atoms: _221  and  _223
REMARK   83  A    between atoms: _223  and  _224
REMARK   84  A    between atoms: _223  and  _226
REMARK   85  A    between atoms: _226  and  _227
REMARK   86  A    between atoms: _227  and  _228
REMARK   87  A    between atoms: _230  and  _232
REMARK   88  A    between atoms: _232  and  _233
REMARK   89  A    between atoms: _232  and  _235
REMARK   90  A    between atoms: _235  and  _236
REMARK   91  A    between atoms: _246  and  _248
REMARK   92  A    between atoms: _248  and  _249
REMARK   93  A    between atoms: _248  and  _251
REMARK   94  A    between atoms: _251  and  _252
REMARK   95  A    between atoms: _255  and  _257
REMARK   96  A    between atoms: _257  and  _258
REMARK   97  A    between atoms: _257  and  _260
REMARK   98  A    between atoms: _260  and  _261
REMARK   99  A    between atoms: _261  and  _262
REMARK  100  A    between atoms: _265  and  _267
REMARK  101  A    between atoms: _267  and  _268
REMARK  102  A    between atoms: _267  and  _270
REMARK  103  A    between atoms: _270  and  _271
REMARK  104  A    between atoms: _276  and  _278
REMARK  105  A    between atoms: _278  and  _279
REMARK  106  A    between atoms: _281  and  _283
REMARK  107  A    between atoms: _283  and  _284
REMARK  108  A    between atoms: _287  and  _289
REMARK  109  A    between atoms: _289  and  _290
REMARK  110  A    between atoms: _293  and  _295
REMARK  111  A    between atoms: _295  and  _296
REMARK  112  A    between atoms: _295  and  _298
REMARK  113  A    between atoms: _298  and  _299
REMARK  114  A    between atoms: _309  and  _311
REMARK  115  A    between atoms: _311  and  _312
REMARK  116  A    between atoms: _311  and  _314
REMARK  117  A    between atoms: _314  and  _315
REMARK  118  A    between atoms: _317  and  _319
REMARK  119  A    between atoms: _319  and  _320
REMARK  120  A    between atoms: _319  and  _322
REMARK  121  A    between atoms: _322  and  _323
REMARK  122  A    between atoms: _328  and  _330
REMARK  123  A    between atoms: _330  and  _331
REMARK  124  A    between atoms: _330  and  _333
REMARK  125  A    between atoms: _333  and  _334
REMARK  126  A    between atoms: _340  and  _342
REMARK  127  A    between atoms: _342  and  _343
REMARK  128  A    between atoms: _342  and  _345
REMARK  129  A    between atoms: _345  and  _346
REMARK  130  A    between atoms: _346  and  _347
REMARK  131  A    between atoms: _350  and  _352
REMARK  132  A    between atoms: _352  and  _353
REMARK  133  A    between atoms: _352  and  _355
REMARK  134  A    between atoms: _355  and  _356
REMARK  135  A    between atoms: _366  and  _368
REMARK  136  A    between atoms: _368  and  _369
REMARK  137  A    between atoms: _368  and  _371
REMARK  138  A    between atoms: _371  and  _372
REMARK  139  A    between atoms: _372  and  _373
REMARK  140  A    between atoms: _376  and  _378
REMARK  141  A    between atoms: _378  and  _379
REMARK  142  A    between atoms: _378  and  _381
REMARK  143  A    between atoms: _381  and  _382
REMARK  144  A    between atoms: _382  and  _383
REMARK  145  A    between atoms: _383  and  _384
REMARK  146  A    between atoms: _384  and  _385
REMARK  147  A    between atoms: _389  and  _391
REMARK  148  A    between atoms: _391  and  _392
REMARK  149  A    between atoms: _391  and  _394
REMARK  150  A    between atoms: _394  and  _395
REMARK                            x       y       z     vdW  Elec       q    Type
REMARK                         _______ _______ _______ _____ _____    ______ ____
ROOT
ATOM      1  O   HOH     1       1.163   6.352   9.541  0.00  0.00    +0.000 OA
ENDROOT
TORSDOF 0
REMARK  Name = ../refined-set-2016/1w3j/1w3j_pocket.pdb
REMARK  150 active torsions:
REMARK  status: ('A' for Active; 'I' for Inactive)
REMARK    1  A    between atoms: _1  and  _3
REMARK    2  A    between atoms: _3  and  _4
REMARK    3  A    between atoms: _7  and  _9
REMARK    4  A    between atoms: _9  and  _10
REMARK    5  A    between atoms: _9  and  _12
REMARK    6  A    between atoms: _12  and  _13
REMARK    7  A    between atoms: _16  and  _18
REMARK    8  A    between atoms: _18  and  _19
REMARK    9  A    between atoms: _22  and  _24
REMARK   10  A    between atoms: _24  and  _25
REMARK   11  A    between atoms: _24  and  _27
REMARK   12  A    between atoms: _27  and  _28
REMARK   13  A    between atoms: _30  and  _32
REMARK   14  A    between atoms: _32  and  _33
REMARK   15  A    between atoms: _32  and  _35
REMARK   16  A    between atoms: _35  and  _36
REMARK   17  A    between atoms: _41  and  _42
REMARK   18  A    between atoms: _44  and  _46
REMARK   19  A    between atoms: _46  and  _47
REMARK   20  A    between atoms: _46  and  _49
REMARK   21  A    between atoms: _49  and  _50
REMARK   22  A    between atoms: _50  and  _51
REMARK   23  A    between atoms: _56  and  _58
REMARK   24  A    between atoms: _58  and  _59
REMARK   25  A    between atoms: _58  and  _61
REMARK   26  A    between atoms: _61  and  _62
REMARK   27  A    between atoms: _62  and  _63
REMARK   28  A    between atoms: _63  and  _64
REMARK   29  A    between atoms: _73  and  _75
REMARK   30  A    between atoms: _75  and  _76
REMARK   31  A    between atoms: _75  and  _78
REMARK   32  A    between atoms: _78  and  _79
REMARK   33  A    between atoms: _84  and  _86
REMARK   34  A    between atoms: _86  and  _87
REMARK   35  A    between atoms: _86  and  _89
REMARK   36  A    between atoms: _89  and  _90
REMARK   37  A    between atoms: _100  and  _102
REMARK   38  A    between atoms: _102  and  _103
REMARK   39  A    between atoms: _102  and  _105
REMARK   40  A    between atoms: _105  and  _106
REMARK   41  A    between atoms: _111  and  _113
REMARK   42  A    between atoms: _113  and  _114
REMARK   43  A    between atoms: _113  and  _116
REMARK   44  A    between atoms: _116  and  _117
REMARK   45  A    between atoms: _117  and  _118
REMARK   46  A    between atoms: _121  and  _123
REMARK   47  A    between atoms: _123  and  _124
REMARK   48  A    between atoms: _123  and  _126
REMARK   49  A    between atoms: _129  and  _131
REMARK   50  A    between atoms: _131  and  _132
REMARK   51  A    between atoms: _131  and  _134
REMARK   52  A    between atoms: _134  and  _135
REMARK   53  A    between atoms: _140  and  _142
REMARK   54  A    between atoms: _142  and  _143
REMARK   55  A    between atoms: _142  and  _145
REMARK   56  A    between atoms: _148  and  _150
REMARK   57  A    between atoms: _150  and  _151
REMARK   58  A    between atoms: _150  and  _153
REMARK   59  A    between atoms: _153  and  _154
REMARK   60  A    between atoms: _160  and  _162
REMARK   61  A    between atoms: _162  and  _163
REMARK   62  A    between atoms: _162  and  _165
REMARK   63  A    between atoms: _165  and  _166
REMARK   64  A    between atoms: _171  and  _173
REMARK   65  A    between atoms: _173  and  _174
REMARK   66  A    between atoms: _173  and  _176
REMARK   67  A    between atoms: _176  and  _177
REMARK   68  A    between atoms: _182  and  _184
REMARK   69  A    between atoms: _184  and  _185
REMARK   70  A    between atoms: _184  and  _187
REMARK   71  A    between atoms: _187  and  _188
REMARK   72  A    between atoms: _193  and  _195
REMARK   73  A    between atoms: _195  and  _196
REMARK   74  A    between atoms: _195  and  _198
REMARK   75  A    between atoms: _198  and  _199
REMARK   76  A    between atoms: _204  and  _205
REMARK   77  A    between atoms: _207  and  _209
REMARK   78  A    between atoms: _209  and  _210
REMARK   79  A    between atoms: _209  and  _212
REMARK   80  A    between atoms: _212  and  _213
REMARK   81  A    between atoms: _218  and  _219
REMARK   82  A    between atoms: _221  and  _223
REMARK   83  A    between atoms: _223  and  _224
REMARK   84  A    between atoms: _223  and  _226
REMARK   85  A    between atoms: _226  and  _227
REMARK   86  A    between atoms: _227  and  _228
REMARK   87  A    between atoms: _230  and  _232
REMARK   88  A    between atoms: _232  and  _233
REMARK   89  A    between atoms: _232  and  _235
REMARK   90  A    between atoms: _235  and  _236
REMARK   91  A    between atoms: _246  and  _248
REMARK   92  A    between atoms: _248  and  _249
REMARK   93  A    between atoms: _248  and  _251
REMARK   94  A    between atoms: _251  and  _252
REMARK   95  A    between atoms: _255  and  _257
REMARK   96  A    between atoms: _257  and  _258
REMARK   97  A    between atoms: _257  and  _260
REMARK   98  A    between atoms: _260  and  _261
REMARK   99  A    between atoms: _261  and  _262
REMARK  100  A    between atoms: _265  and  _267
REMARK  101  A    between atoms: _267  and  _268
REMARK  102  A    between atoms: _267  and  _270
REMARK  103  A    between atoms: _270  and  _271
REMARK  104  A    between atoms: _276  and  _278
REMARK  105  A    between atoms: _278  and  _279
REMARK  106  A    between atoms: _281  and  _283
REMARK  107  A    between atoms: _283  and  _284
REMARK  108  A    between atoms: _287  and  _289
REMARK  109  A    between atoms: _289  and  _290
REMARK  110  A    between atoms: _293  and  _295
REMARK  111  A    between atoms: _295  and  _296
REMARK  112  A    between atoms: _295  and  _298
REMARK  113  A    between atoms: _298  and  _299
REMARK  114  A    between atoms: _309  and  _311
REMARK  115  A    between atoms: _311  and  _312
REMARK  116  A    between atoms: _311  and  _314
REMARK  117  A    between atoms: _314  and  _315
REMARK  118  A    between atoms: _317  and  _319
REMARK  119  A    between atoms: _319  and  _320
REMARK  120  A    between atoms: _319  and  _322
REMARK  121  A    between atoms: _322  and  _323
REMARK  122  A    between atoms: _328  and  _330
REMARK  123  A    between atoms: _330  and  _331
REMARK  124  A    between atoms: _330  and  _333
REMARK  125  A    between atoms: _333  and  _334
REMARK  126  A    between atoms: _340  and  _342
REMARK  127  A    between atoms: _342  and  _343
REMARK  128  A    between atoms: _342  and  _345
REMARK  129  A    between atoms: _345  and  _346
REMARK  130  A    between atoms: _346  and  _347
REMARK  131  A    between atoms: _350  and  _352
REMARK  132  A    between atoms: _352  and  _353
REMARK  133  A    between atoms: _352  and  _355
REMARK  134  A    between atoms: _355  and  _356
REMARK  135  A    between atoms: _366  and  _368
REMARK  136  A    between atoms: _368  and  _369
REMARK  137  A    between atoms: _368  and  _371
REMARK  138  A    between atoms: _371  and  _372
REMARK  139  A    between atoms: _372  and  _373
REMARK  140  A    between atoms: _376  and  _378
REMARK  141  A    between atoms: _378  and  _379
REMARK  142  A    between atoms: _378  and  _381
REMARK  143  A    between atoms: _381  and  _382
REMARK  144  A    between atoms: _382  and  _383
REMARK  145  A    between atoms: _383  and  _384
REMARK  146  A    between atoms: _384  and  _385
REMARK  147  A    between atoms: _389  and  _391
REMARK  148  A    between atoms: _391  and  _392
REMARK  149  A    between atoms: _391  and  _394
REMARK  150  A    between atoms: _394  and  _395
REMARK                            x       y       z     vdW  Elec       q    Type
REMARK                         _______ _______ _______ _____ _____    ______ ____
ROOT
ATOM      1  O   HOH     1       2.106  19.048   8.164  0.00  0.00    +0.000 OA
ENDROOT
TORSDOF 0
REMARK  Name = ../refined-set-2016/1w3j/1w3j_pocket.pdb
REMARK  150 active torsions:
REMARK  status: ('A' for Active; 'I' for Inactive)
REMARK    1  A    between atoms: _1  and  _3
REMARK    2  A    between atoms: _3  and  _4
REMARK    3  A    between atoms: _7  and  _9
REMARK    4  A    between atoms: _9  and  _10
REMARK    5  A    between atoms: _9  and  _12
REMARK    6  A    between atoms: _12  and  _13
REMARK    7  A    between atoms: _16  and  _18
REMARK    8  A    between atoms: _18  and  _19
REMARK    9  A    between atoms: _22  and  _24
REMARK   10  A    between atoms: _24  and  _25
REMARK   11  A    between atoms: _24  and  _27
REMARK   12  A    between atoms: _27  and  _28
REMARK   13  A    between atoms: _30  and  _32
REMARK   14  A    between atoms: _32  and  _33
REMARK   15  A    between atoms: _32  and  _35
REMARK   16  A    between atoms: _35  and  _36
REMARK   17  A    between atoms: _41  and  _42
REMARK   18  A    between atoms: _44  and  _46
REMARK   19  A    between atoms: _46  and  _47
REMARK   20  A    between atoms: _46  and  _49
REMARK   21  A    between atoms: _49  and  _50
REMARK   22  A    between atoms: _50  and  _51
REMARK   23  A    between atoms: _56  and  _58
REMARK   24  A    between atoms: _58  and  _59
REMARK   25  A    between atoms: _58  and  _61
REMARK   26  A    between atoms: _61  and  _62
REMARK   27  A    between atoms: _62  and  _63
REMARK   28  A    between atoms: _63  and  _64
REMARK   29  A    between atoms: _73  and  _75
REMARK   30  A    between atoms: _75  and  _76
REMARK   31  A    between atoms: _75  and  _78
REMARK   32  A    between atoms: _78  and  _79
REMARK   33  A    between atoms: _84  and  _86
REMARK   34  A    between atoms: _86  and  _87
REMARK   35  A    between atoms: _86  and  _89
REMARK   36  A    between atoms: _89  and  _90
REMARK   37  A    between atoms: _100  and  _102
REMARK   38  A    between atoms: _102  and  _103
REMARK   39  A    between atoms: _102  and  _105
REMARK   40  A    between atoms: _105  and  _106
REMARK   41  A    between atoms: _111  and  _113
REMARK   42  A    between atoms: _113  and  _114
REMARK   43  A    between atoms: _113  and  _116
REMARK   44  A    between atoms: _116  and  _117
REMARK   45  A    between atoms: _117  and  _118
REMARK   46  A    between atoms: _121  and  _123
REMARK   47  A    between atoms: _123  and  _124
REMARK   48  A    between atoms: _123  and  _126
REMARK   49  A    between atoms: _129  and  _131
REMARK   50  A    between atoms: _131  and  _132
REMARK   51  A    between atoms: _131  and  _134
REMARK   52  A    between atoms: _134  and  _135
REMARK   53  A    between atoms: _140  and  _142
REMARK   54  A    between atoms: _142  and  _143
REMARK   55  A    between atoms: _142  and  _145
REMARK   56  A    between atoms: _148  and  _150
REMARK   57  A    between atoms: _150  and  _151
REMARK   58  A    between atoms: _150  and  _153
REMARK   59  A    between atoms: _153  and  _154
REMARK   60  A    between atoms: _160  and  _162
REMARK   61  A    between atoms: _162  and  _163
REMARK   62  A    between atoms: _162  and  _165
REMARK   63  A    between atoms: _165  and  _166
REMARK   64  A    between atoms: _171  and  _173
REMARK   65  A    between atoms: _173  and  _174
REMARK   66  A    between atoms: _173  and  _176
REMARK   67  A    between atoms: _176  and  _177
REMARK   68  A    between atoms: _182  and  _184
REMARK   69  A    between atoms: _184  and  _185
REMARK   70  A    between atoms: _184  and  _187
REMARK   71  A    between atoms: _187  and  _188
REMARK   72  A    between atoms: _193  and  _195
REMARK   73  A    between atoms: _195  and  _196
REMARK   74  A    between atoms: _195  and  _198
REMARK   75  A    between atoms: _198  and  _199
REMARK   76  A    between atoms: _204  and  _205
REMARK   77  A    between atoms: _207  and  _209
REMARK   78  A    between atoms: _209  and  _210
REMARK   79  A    between atoms: _209  and  _212
REMARK   80  A    between atoms: _212  and  _213
REMARK   81  A    between atoms: _218  and  _219
REMARK   82  A    between atoms: _221  and  _223
REMARK   83  A    between atoms: _223  and  _224
REMARK   84  A    between atoms: _223  and  _226
REMARK   85  A    between atoms: _226  and  _227
REMARK   86  A    between atoms: _227  and  _228
REMARK   87  A    between atoms: _230  and  _232
REMARK   88  A    between atoms: _232  and  _233
REMARK   89  A    between atoms: _232  and  _235
REMARK   90  A    between atoms: _235  and  _236
REMARK   91  A    between atoms: _246  and  _248
REMARK   92  A    between atoms: _248  and  _249
REMARK   93  A    between atoms: _248  and  _251
REMARK   94  A    between atoms: _251  and  _252
REMARK   95  A    between atoms: _255  and  _257
REMARK   96  A    between atoms: _257  and  _258
REMARK   97  A    between atoms: _257  and  _260
REMARK   98  A    between atoms: _260  and  _261
REMARK   99  A    between atoms: _261  and  _262
REMARK  100  A    between atoms: _265  and  _267
REMARK  101  A    between atoms: _267  and  _268
REMARK  102  A    between atoms: _267  and  _270
REMARK  103  A    between atoms: _270  and  _271
REMARK  104  A    between atoms: _276  and  _278
REMARK  105  A    between atoms: _278  and  _279
REMARK  106  A    between atoms: _281  and  _283
REMARK  107  A    between atoms: _283  and  _284
REMARK  108  A    between atoms: _287  and  _289
REMARK  109  A    between atoms: _289  and  _290
REMARK  110  A    between atoms: _293  and  _295
REMARK  111  A    between atoms: _295  and  _296
REMARK  112  A    between atoms: _295  and  _298
REMARK  113  A    between atoms: _298  and  _299
REMARK  114  A    between atoms: _309  and  _311
REMARK  115  A    between atoms: _311  and  _312
REMARK  116  A    between atoms: _311  and  _314
REMARK  117  A    between atoms: _314  and  _315
REMARK  118  A    between atoms: _317  and  _319
REMARK  119  A    between atoms: _319  and  _320
REMARK  120  A    between atoms: _319  and  _322
REMARK  121  A    between atoms: _322  and  _323
REMARK  122  A    between atoms: _328  and  _330
REMARK  123  A    between atoms: _330  and  _331
REMARK  124  A    between atoms: _330  and  _333
REMARK  125  A    between atoms: _333  and  _334
REMARK  126  A    between atoms: _340  and  _342
REMARK  127  A    between atoms: _342  and  _343
REMARK  128  A    between atoms: _342  and  _345
REMARK  129  A    between atoms: _345  and  _346
REMARK  130  A    between atoms: _346  and  _347
REMARK  131  A    between atoms: _350  and  _352
REMARK  132  A    between atoms: _352  and  _353
REMARK  133  A    between atoms: _352  and  _355
REMARK  134  A    between atoms: _355  and  _356
REMARK  135  A    between atoms: _366  and  _368
REMARK  136  A    between atoms: _368  and  _369
REMARK  137  A    between atoms: _368  and  _371
REMARK  138  A    between atoms: _371  and  _372
REMARK  139  A    between atoms: _372  and  _373
REMARK  140  A    between atoms: _376  and  _378
REMARK  141  A    between atoms: _378  and  _379
REMARK  142  A    between atoms: _378  and  _381
REMARK  143  A    between atoms: _381  and  _382
REMARK  144  A    between atoms: _382  and  _383
REMARK  145  A    between atoms: _383  and  _384
REMARK  146  A    between atoms: _384  and  _385
REMARK  147  A    between atoms: _389  and  _391
REMARK  148  A    between atoms: _391  and  _392
REMARK  149  A    between atoms: _391  and  _394
REMARK  150  A    between atoms: _394  and  _395
REMARK                            x       y       z     vdW  Elec       q    Type
REMARK                         _______ _______ _______ _____ _____    ______ ____
ROOT
ATOM      1  O   HOH     1       6.080  15.253   3.842  0.00  0.00    +0.000 OA
ENDROOT
TORSDOF 0
REMARK  Name = ../refined-set-2016/1w3j/1w3j_pocket.pdb
REMARK  150 active torsions:
REMARK  status: ('A' for Active; 'I' for Inactive)
REMARK    1  A    between atoms: _1  and  _3
REMARK    2  A    between atoms: _3  and  _4
REMARK    3  A    between atoms: _7  and  _9
REMARK    4  A    between atoms: _9  and  _10
REMARK    5  A    between atoms: _9  and  _12
REMARK    6  A    between atoms: _12  and  _13
REMARK    7  A    between atoms: _16  and  _18
REMARK    8  A    between atoms: _18  and  _19
REMARK    9  A    between atoms: _22  and  _24
REMARK   10  A    between atoms: _24  and  _25
REMARK   11  A    between atoms: _24  and  _27
REMARK   12  A    between atoms: _27  and  _28
REMARK   13  A    between atoms: _30  and  _32
REMARK   14  A    between atoms: _32  and  _33
REMARK   15  A    between atoms: _32  and  _35
REMARK   16  A    between atoms: _35  and  _36
REMARK   17  A    between atoms: _41  and  _42
REMARK   18  A    between atoms: _44  and  _46
REMARK   19  A    between atoms: _46  and  _47
REMARK   20  A    between atoms: _46  and  _49
REMARK   21  A    between atoms: _49  and  _50
REMARK   22  A    between atoms: _50  and  _51
REMARK   23  A    between atoms: _56  and  _58
REMARK   24  A    between atoms: _58  and  _59
REMARK   25  A    between atoms: _58  and  _61
REMARK   26  A    between atoms: _61  and  _62
REMARK   27  A    between atoms: _62  and  _63
REMARK   28  A    between atoms: _63  and  _64
REMARK   29  A    between atoms: _73  and  _75
REMARK   30  A    between atoms: _75  and  _76
REMARK   31  A    between atoms: _75  and  _78
REMARK   32  A    between atoms: _78  and  _79
REMARK   33  A    between atoms: _84  and  _86
REMARK   34  A    between atoms: _86  and  _87
REMARK   35  A    between atoms: _86  and  _89
REMARK   36  A    between atoms: _89  and  _90
REMARK   37  A    between atoms: _100  and  _102
REMARK   38  A    between atoms: _102  and  _103
REMARK   39  A    between atoms: _102  and  _105
REMARK   40  A    between atoms: _105  and  _106
REMARK   41  A    between atoms: _111  and  _113
REMARK   42  A    between atoms: _113  and  _114
REMARK   43  A    between atoms: _113  and  _116
REMARK   44  A    between atoms: _116  and  _117
REMARK   45  A    between atoms: _117  and  _118
REMARK   46  A    between atoms: _121  and  _123
REMARK   47  A    between atoms: _123  and  _124
REMARK   48  A    between atoms: _123  and  _126
REMARK   49  A    between atoms: _129  and  _131
REMARK   50  A    between atoms: _131  and  _132
REMARK   51  A    between atoms: _131  and  _134
REMARK   52  A    between atoms: _134  and  _135
REMARK   53  A    between atoms: _140  and  _142
REMARK   54  A    between atoms: _142  and  _143
REMARK   55  A    between atoms: _142  and  _145
REMARK   56  A    between atoms: _148  and  _150
REMARK   57  A    between atoms: _150  and  _151
REMARK   58  A    between atoms: _150  and  _153
REMARK   59  A    between atoms: _153  and  _154
REMARK   60  A    between atoms: _160  and  _162
REMARK   61  A    between atoms: _162  and  _163
REMARK   62  A    between atoms: _162  and  _165
REMARK   63  A    between atoms: _165  and  _166
REMARK   64  A    between atoms: _171  and  _173
REMARK   65  A    between atoms: _173  and  _174
REMARK   66  A    between atoms: _173  and  _176
REMARK   67  A    between atoms: _176  and  _177
REMARK   68  A    between atoms: _182  and  _184
REMARK   69  A    between atoms: _184  and  _185
REMARK   70  A    between atoms: _184  and  _187
REMARK   71  A    between atoms: _187  and  _188
REMARK   72  A    between atoms: _193  and  _195
REMARK   73  A    between atoms: _195  and  _196
REMARK   74  A    between atoms: _195  and  _198
REMARK   75  A    between atoms: _198  and  _199
REMARK   76  A    between atoms: _204  and  _205
REMARK   77  A    between atoms: _207  and  _209
REMARK   78  A    between atoms: _209  and  _210
REMARK   79  A    between atoms: _209  and  _212
REMARK   80  A    between atoms: _212  and  _213
REMARK   81  A    between atoms: _218  and  _219
REMARK   82  A    between atoms: _221  and  _223
REMARK   83  A    between atoms: _223  and  _224
REMARK   84  A    between atoms: _223  and  _226
REMARK   85  A    between atoms: _226  and  _227
REMARK   86  A    between atoms: _227  and  _228
REMARK   87  A    between atoms: _230  and  _232
REMARK   88  A    between atoms: _232  and  _233
REMARK   89  A    between atoms: _232  and  _235
REMARK   90  A    between atoms: _235  and  _236
REMARK   91  A    between atoms: _246  and  _248
REMARK   92  A    between atoms: _248  and  _249
REMARK   93  A    between atoms: _248  and  _251
REMARK   94  A    between atoms: _251  and  _252
REMARK   95  A    between atoms: _255  and  _257
REMARK   96  A    between atoms: _257  and  _258
REMARK   97  A    between atoms: _257  and  _260
REMARK   98  A    between atoms: _260  and  _261
REMARK   99  A    between atoms: _261  and  _262
REMARK  100  A    between atoms: _265  and  _267
REMARK  101  A    between atoms: _267  and  _268
REMARK  102  A    between atoms: _267  and  _270
REMARK  103  A    between atoms: _270  and  _271
REMARK  104  A    between atoms: _276  and  _278
REMARK  105  A    between atoms: _278  and  _279
REMARK  106  A    between atoms: _281  and  _283
REMARK  107  A    between atoms: _283  and  _284
REMARK  108  A    between atoms: _287  and  _289
REMARK  109  A    between atoms: _289  and  _290
REMARK  110  A    between atoms: _293  and  _295
REMARK  111  A    between atoms: _295  and  _296
REMARK  112  A    between atoms: _295  and  _298
REMARK  113  A    between atoms: _298  and  _299
REMARK  114  A    between atoms: _309  and  _311
REMARK  115  A    between atoms: _311  and  _312
REMARK  116  A    between atoms: _311  and  _314
REMARK  117  A    between atoms: _314  and  _315
REMARK  118  A    between atoms: _317  and  _319
REMARK  119  A    between atoms: _319  and  _320
REMARK  120  A    between atoms: _319  and  _322
REMARK  121  A    between atoms: _322  and  _323
REMARK  122  A    between atoms: _328  and  _330
REMARK  123  A    between atoms: _330  and  _331
REMARK  124  A    between atoms: _330  and  _333
REMARK  125  A    between atoms: _333  and  _334
REMARK  126  A    between atoms: _340  and  _342
REMARK  127  A    between atoms: _342  and  _343
REMARK  128  A    between atoms: _342  and  _345
REMARK  129  A    between atoms: _345  and  _346
REMARK  130  A    between atoms: _346  and  _347
REMARK  131  A    between atoms: _350  and  _352
REMARK  132  A    between atoms: _352  and  _353
REMARK  133  A    between atoms: _352  and  _355
REMARK  134  A    between atoms: _355  and  _356
REMARK  135  A    between atoms: _366  and  _368
REMARK  136  A    between atoms: _368  and  _369
REMARK  137  A    between atoms: _368  and  _371
REMARK  138  A    between atoms: _371  and  _372
REMARK  139  A    between atoms: _372  and  _373
REMARK  140  A    between atoms: _376  and  _378
REMARK  141  A    between atoms: _378  and  _379
REMARK  142  A    between atoms: _378  and  _381
REMARK  143  A    between atoms: _381  and  _382
REMARK  144  A    between atoms: _382  and  _383
REMARK  145  A    between atoms: _383  and  _384
REMARK  146  A    between atoms: _384  and  _385
REMARK  147  A    between atoms: _389  and  _391
REMARK  148  A    between atoms: _391  and  _392
REMARK  149  A    between atoms: _391  and  _394
REMARK  150  A    between atoms: _394  and  _395
REMARK                            x       y       z     vdW  Elec       q    Type
REMARK                         _______ _______ _______ _____ _____    ______ ____
ROOT
ATOM      1  O   HOH     1      -1.352   9.420  13.906  0.00  0.00    +0.000 OA
ENDROOT
TORSDOF 0
REMARK  Name = ../refined-set-2016/1w3j/1w3j_pocket.pdb
REMARK  150 active torsions:
REMARK  status: ('A' for Active; 'I' for Inactive)
REMARK    1  A    between atoms: _1  and  _3
REMARK    2  A    between atoms: _3  and  _4
REMARK    3  A    between atoms: _7  and  _9
REMARK    4  A    between atoms: _9  and  _10
REMARK    5  A    between atoms: _9  and  _12
REMARK    6  A    between atoms: _12  and  _13
REMARK    7  A    between atoms: _16  and  _18
REMARK    8  A    between atoms: _18  and  _19
REMARK    9  A    between atoms: _22  and  _24
REMARK   10  A    between atoms: _24  and  _25
REMARK   11  A    between atoms: _24  and  _27
REMARK   12  A    between atoms: _27  and  _28
REMARK   13  A    between atoms: _30  and  _32
REMARK   14  A    between atoms: _32  and  _33
REMARK   15  A    between atoms: _32  and  _35
REMARK   16  A    between atoms: _35  and  _36
REMARK   17  A    between atoms: _41  and  _42
REMARK   18  A    between atoms: _44  and  _46
REMARK   19  A    between atoms: _46  and  _47
REMARK   20  A    between atoms: _46  and  _49
REMARK   21  A    between atoms: _49  and  _50
REMARK   22  A    between atoms: _50  and  _51
REMARK   23  A    between atoms: _56  and  _58
REMARK   24  A    between atoms: _58  and  _59
REMARK   25  A    between atoms: _58  and  _61
REMARK   26  A    between atoms: _61  and  _62
REMARK   27  A    between atoms: _62  and  _63
REMARK   28  A    between atoms: _63  and  _64
REMARK   29  A    between atoms: _73  and  _75
REMARK   30  A    between atoms: _75  and  _76
REMARK   31  A    between atoms: _75  and  _78
REMARK   32  A    between atoms: _78  and  _79
REMARK   33  A    between atoms: _84  and  _86
REMARK   34  A    between atoms: _86  and  _87
REMARK   35  A    between atoms: _86  and  _89
REMARK   36  A    between atoms: _89  and  _90
REMARK   37  A    between atoms: _100  and  _102
REMARK   38  A    between atoms: _102  and  _103
REMARK   39  A    between atoms: _102  and  _105
REMARK   40  A    between atoms: _105  and  _106
REMARK   41  A    between atoms: _111  and  _113
REMARK   42  A    between atoms: _113  and  _114
REMARK   43  A    between atoms: _113  and  _116
REMARK   44  A    between atoms: _116  and  _117
REMARK   45  A    between atoms: _117  and  _118
REMARK   46  A    between atoms: _121  and  _123
REMARK   47  A    between atoms: _123  and  _124
REMARK   48  A    between atoms: _123  and  _126
REMARK   49  A    between atoms: _129  and  _131
REMARK   50  A    between atoms: _131  and  _132
REMARK   51  A    between atoms: _131  and  _134
REMARK   52  A    between atoms: _134  and  _135
REMARK   53  A    between atoms: _140  and  _142
REMARK   54  A    between atoms: _142  and  _143
REMARK   55  A    between atoms: _142  and  _145
REMARK   56  A    between atoms: _148  and  _150
REMARK   57  A    between atoms: _150  and  _151
REMARK   58  A    between atoms: _150  and  _153
REMARK   59  A    between atoms: _153  and  _154
REMARK   60  A    between atoms: _160  and  _162
REMARK   61  A    between atoms: _162  and  _163
REMARK   62  A    between atoms: _162  and  _165
REMARK   63  A    between atoms: _165  and  _166
REMARK   64  A    between atoms: _171  and  _173
REMARK   65  A    between atoms: _173  and  _174
REMARK   66  A    between atoms: _173  and  _176
REMARK   67  A    between atoms: _176  and  _177
REMARK   68  A    between atoms: _182  and  _184
REMARK   69  A    between atoms: _184  and  _185
REMARK   70  A    between atoms: _184  and  _187
REMARK   71  A    between atoms: _187  and  _188
REMARK   72  A    between atoms: _193  and  _195
REMARK   73  A    between atoms: _195  and  _196
REMARK   74  A    between atoms: _195  and  _198
REMARK   75  A    between atoms: _198  and  _199
REMARK   76  A    between atoms: _204  and  _205
REMARK   77  A    between atoms: _207  and  _209
REMARK   78  A    between atoms: _209  and  _210
REMARK   79  A    between atoms: _209  and  _212
REMARK   80  A    between atoms: _212  and  _213
REMARK   81  A    between atoms: _218  and  _219
REMARK   82  A    between atoms: _221  and  _223
REMARK   83  A    between atoms: _223  and  _224
REMARK   84  A    between atoms: _223  and  _226
REMARK   85  A    between atoms: _226  and  _227
REMARK   86  A    between atoms: _227  and  _228
REMARK   87  A    between atoms: _230  and  _232
REMARK   88  A    between atoms: _232  and  _233
REMARK   89  A    between atoms: _232  and  _235
REMARK   90  A    between atoms: _235  and  _236
REMARK   91  A    between atoms: _246  and  _248
REMARK   92  A    between atoms: _248  and  _249
REMARK   93  A    between atoms: _248  and  _251
REMARK   94  A    between atoms: _251  and  _252
REMARK   95  A    between atoms: _255  and  _257
REMARK   96  A    between atoms: _257  and  _258
REMARK   97  A    between atoms: _257  and  _260
REMARK   98  A    between atoms: _260  and  _261
REMARK   99  A    between atoms: _261  and  _262
REMARK  100  A    between atoms: _265  and  _267
REMARK  101  A    between atoms: _267  and  _268
REMARK  102  A    between atoms: _267  and  _270
REMARK  103  A    between atoms: _270  and  _271
REMARK  104  A    between atoms: _276  and  _278
REMARK  105  A    between atoms: _278  and  _279
REMARK  106  A    between atoms: _281  and  _283
REMARK  107  A    between atoms: _283  and  _284
REMARK  108  A    between atoms: _287  and  _289
REMARK  109  A    between atoms: _289  and  _290
REMARK  110  A    between atoms: _293  and  _295
REMARK  111  A    between atoms: _295  and  _296
REMARK  112  A    between atoms: _295  and  _298
REMARK  113  A    between atoms: _298  and  _299
REMARK  114  A    between atoms: _309  and  _311
REMARK  115  A    between atoms: _311  and  _312
REMARK  116  A    between atoms: _311  and  _314
REMARK  117  A    between atoms: _314  and  _315
REMARK  118  A    between atoms: _317  and  _319
REMARK  119  A    between atoms: _319  and  _320
REMARK  120  A    between atoms: _319  and  _322
REMARK  121  A    between atoms: _322  and  _323
REMARK  122  A    between atoms: _328  and  _330
REMARK  123  A    between atoms: _330  and  _331
REMARK  124  A    between atoms: _330  and  _333
REMARK  125  A    between atoms: _333  and  _334
REMARK  126  A    between atoms: _340  and  _342
REMARK  127  A    between atoms: _342  and  _343
REMARK  128  A    between atoms: _342  and  _345
REMARK  129  A    between atoms: _345  and  _346
REMARK  130  A    between atoms: _346  and  _347
REMARK  131  A    between atoms: _350  and  _352
REMARK  132  A    between atoms: _352  and  _353
REMARK  133  A    between atoms: _352  and  _355
REMARK  134  A    between atoms: _355  and  _356
REMARK  135  A    between atoms: _366  and  _368
REMARK  136  A    between atoms: _368  and  _369
REMARK  137  A    between atoms: _368  and  _371
REMARK  138  A    between atoms: _371  and  _372
REMARK  139  A    between atoms: _372  and  _373
REMARK  140  A    between atoms: _376  and  _378
REMARK  141  A    between atoms: _378  and  _379
REMARK  142  A    between atoms: _378  and  _381
REMARK  143  A    between atoms: _381  and  _382
REMARK  144  A    between atoms: _382  and  _383
REMARK  145  A    between atoms: _383  and  _384
REMARK  146  A    between atoms: _384  and  _385
REMARK  147  A    between atoms: _389  and  _391
REMARK  148  A    between atoms: _391  and  _392
REMARK  149  A    between atoms: _391  and  _394
REMARK  150  A    between atoms: _394  and  _395
REMARK                            x       y       z     vdW  Elec       q    Type
REMARK                         _______ _______ _______ _____ _____    ______ ____
ROOT
ATOM      1  O   HOH     1       0.792   8.652  10.799  0.00  0.00    +0.000 OA
ENDROOT
TORSDOF 0
REMARK  Name = ../refined-set-2016/1w3j/1w3j_pocket.pdb
REMARK  150 active torsions:
REMARK  status: ('A' for Active; 'I' for Inactive)
REMARK    1  A    between atoms: _1  and  _3
REMARK    2  A    between atoms: _3  and  _4
REMARK    3  A    between atoms: _7  and  _9
REMARK    4  A    between atoms: _9  and  _10
REMARK    5  A    between atoms: _9  and  _12
REMARK    6  A    between atoms: _12  and  _13
REMARK    7  A    between atoms: _16  and  _18
REMARK    8  A    between atoms: _18  and  _19
REMARK    9  A    between atoms: _22  and  _24
REMARK   10  A    between atoms: _24  and  _25
REMARK   11  A    between atoms: _24  and  _27
REMARK   12  A    between atoms: _27  and  _28
REMARK   13  A    between atoms: _30  and  _32
REMARK   14  A    between atoms: _32  and  _33
REMARK   15  A    between atoms: _32  and  _35
REMARK   16  A    between atoms: _35  and  _36
REMARK   17  A    between atoms: _41  and  _42
REMARK   18  A    between atoms: _44  and  _46
REMARK   19  A    between atoms: _46  and  _47
REMARK   20  A    between atoms: _46  and  _49
REMARK   21  A    between atoms: _49  and  _50
REMARK   22  A    between atoms: _50  and  _51
REMARK   23  A    between atoms: _56  and  _58
REMARK   24  A    between atoms: _58  and  _59
REMARK   25  A    between atoms: _58  and  _61
REMARK   26  A    between atoms: _61  and  _62
REMARK   27  A    between atoms: _62  and  _63
REMARK   28  A    between atoms: _63  and  _64
REMARK   29  A    between atoms: _73  and  _75
REMARK   30  A    between atoms: _75  and  _76
REMARK   31  A    between atoms: _75  and  _78
REMARK   32  A    between atoms: _78  and  _79
REMARK   33  A    between atoms: _84  and  _86
REMARK   34  A    between atoms: _86  and  _87
REMARK   35  A    between atoms: _86  and  _89
REMARK   36  A    between atoms: _89  and  _90
REMARK   37  A    between atoms: _100  and  _102
REMARK   38  A    between atoms: _102  and  _103
REMARK   39  A    between atoms: _102  and  _105
REMARK   40  A    between atoms: _105  and  _106
REMARK   41  A    between atoms: _111  and  _113
REMARK   42  A    between atoms: _113  and  _114
REMARK   43  A    between atoms: _113  and  _116
REMARK   44  A    between atoms: _116  and  _117
REMARK   45  A    between atoms: _117  and  _118
REMARK   46  A    between atoms: _121  and  _123
REMARK   47  A    between atoms: _123  and  _124
REMARK   48  A    between atoms: _123  and  _126
REMARK   49  A    between atoms: _129  and  _131
REMARK   50  A    between atoms: _131  and  _132
REMARK   51  A    between atoms: _131  and  _134
REMARK   52  A    between atoms: _134  and  _135
REMARK   53  A    between atoms: _140  and  _142
REMARK   54  A    between atoms: _142  and  _143
REMARK   55  A    between atoms: _142  and  _145
REMARK   56  A    between atoms: _148  and  _150
REMARK   57  A    between atoms: _150  and  _151
REMARK   58  A    between atoms: _150  and  _153
REMARK   59  A    between atoms: _153  and  _154
REMARK   60  A    between atoms: _160  and  _162
REMARK   61  A    between atoms: _162  and  _163
REMARK   62  A    between atoms: _162  and  _165
REMARK   63  A    between atoms: _165  and  _166
REMARK   64  A    between atoms: _171  and  _173
REMARK   65  A    between atoms: _173  and  _174
REMARK   66  A    between atoms: _173  and  _176
REMARK   67  A    between atoms: _176  and  _177
REMARK   68  A    between atoms: _182  and  _184
REMARK   69  A    between atoms: _184  and  _185
REMARK   70  A    between atoms: _184  and  _187
REMARK   71  A    between atoms: _187  and  _188
REMARK   72  A    between atoms: _193  and  _195
REMARK   73  A    between atoms: _195  and  _196
REMARK   74  A    between atoms: _195  and  _198
REMARK   75  A    between atoms: _198  and  _199
REMARK   76  A    between atoms: _204  and  _205
REMARK   77  A    between atoms: _207  and  _209
REMARK   78  A    between atoms: _209  and  _210
REMARK   79  A    between atoms: _209  and  _212
REMARK   80  A    between atoms: _212  and  _213
REMARK   81  A    between atoms: _218  and  _219
REMARK   82  A    between atoms: _221  and  _223
REMARK   83  A    between atoms: _223  and  _224
REMARK   84  A    between atoms: _223  and  _226
REMARK   85  A    between atoms: _226  and  _227
REMARK   86  A    between atoms: _227  and  _228
REMARK   87  A    between atoms: _230  and  _232
REMARK   88  A    between atoms: _232  and  _233
REMARK   89  A    between atoms: _232  and  _235
REMARK   90  A    between atoms: _235  and  _236
REMARK   91  A    between atoms: _246  and  _248
REMARK   92  A    between atoms: _248  and  _249
REMARK   93  A    between atoms: _248  and  _251
REMARK   94  A    between atoms: _251  and  _252
REMARK   95  A    between atoms: _255  and  _257
REMARK   96  A    between atoms: _257  and  _258
REMARK   97  A    between atoms: _257  and  _260
REMARK   98  A    between atoms: _260  and  _261
REMARK   99  A    between atoms: _261  and  _262
REMARK  100  A    between atoms: _265  and  _267
REMARK  101  A    between atoms: _267  and  _268
REMARK  102  A    between atoms: _267  and  _270
REMARK  103  A    between atoms: _270  and  _271
REMARK  104  A    between atoms: _276  and  _278
REMARK  105  A    between atoms: _278  and  _279
REMARK  106  A    between atoms: _281  and  _283
REMARK  107  A    between atoms: _283  and  _284
REMARK  108  A    between atoms: _287  and  _289
REMARK  109  A    between atoms: _289  and  _290
REMARK  110  A    between atoms: _293  and  _295
REMARK  111  A    between atoms: _295  and  _296
REMARK  112  A    between atoms: _295  and  _298
REMARK  113  A    between atoms: _298  and  _299
REMARK  114  A    between atoms: _309  and  _311
REMARK  115  A    between atoms: _311  and  _312
REMARK  116  A    between atoms: _311  and  _314
REMARK  117  A    between atoms: _314  and  _315
REMARK  118  A    between atoms: _317  and  _319
REMARK  119  A    between atoms: _319  and  _320
REMARK  120  A    between atoms: _319  and  _322
REMARK  121  A    between atoms: _322  and  _323
REMARK  122  A    between atoms: _328  and  _330
REMARK  123  A    between atoms: _330  and  _331
REMARK  124  A    between atoms: _330  and  _333
REMARK  125  A    between atoms: _333  and  _334
REMARK  126  A    between atoms: _340  and  _342
REMARK  127  A    between atoms: _342  and  _343
REMARK  128  A    between atoms: _342  and  _345
REMARK  129  A    between atoms: _345  and  _346
REMARK  130  A    between atoms: _346  and  _347
REMARK  131  A    between atoms: _350  and  _352
REMARK  132  A    between atoms: _352  and  _353
REMARK  133  A    between atoms: _352  and  _355
REMARK  134  A    between atoms: _355  and  _356
REMARK  135  A    between atoms: _366  and  _368
REMARK  136  A    between atoms: _368  and  _369
REMARK  137  A    between atoms: _368  and  _371
REMARK  138  A    between atoms: _371  and  _372
REMARK  139  A    between atoms: _372  and  _373
REMARK  140  A    between atoms: _376  and  _378
REMARK  141  A    between atoms: _378  and  _379
REMARK  142  A    between atoms: _378  and  _381
REMARK  143  A    between atoms: _381  and  _382
REMARK  144  A    between atoms: _382  and  _383
REMARK  145  A    between atoms: _383  and  _384
REMARK  146  A    between atoms: _384  and  _385
REMARK  147  A    between atoms: _389  and  _391
REMARK  148  A    between atoms: _391  and  _392
REMARK  149  A    between atoms: _391  and  _394
REMARK  150  A    between atoms: _394  and  _395
REMARK                            x       y       z     vdW  Elec       q    Type
REMARK                         _______ _______ _______ _____ _____    ______ ____
ROOT
ATOM      1  O   HOH     1       1.993   3.738   6.382  0.00  0.00    +0.000 OA
ENDROOT
TORSDOF 0
REMARK  Name = ../refined-set-2016/1w3j/1w3j_pocket.pdb
REMARK  150 active torsions:
REMARK  status: ('A' for Active; 'I' for Inactive)
REMARK    1  A    between atoms: _1  and  _3
REMARK    2  A    between atoms: _3  and  _4
REMARK    3  A    between atoms: _7  and  _9
REMARK    4  A    between atoms: _9  and  _10
REMARK    5  A    between atoms: _9  and  _12
REMARK    6  A    between atoms: _12  and  _13
REMARK    7  A    between atoms: _16  and  _18
REMARK    8  A    between atoms: _18  and  _19
REMARK    9  A    between atoms: _22  and  _24
REMARK   10  A    between atoms: _24  and  _25
REMARK   11  A    between atoms: _24  and  _27
REMARK   12  A    between atoms: _27  and  _28
REMARK   13  A    between atoms: _30  and  _32
REMARK   14  A    between atoms: _32  and  _33
REMARK   15  A    between atoms: _32  and  _35
REMARK   16  A    between atoms: _35  and  _36
REMARK   17  A    between atoms: _41  and  _42
REMARK   18  A    between atoms: _44  and  _46
REMARK   19  A    between atoms: _46  and  _47
REMARK   20  A    between atoms: _46  and  _49
REMARK   21  A    between atoms: _49  and  _50
REMARK   22  A    between atoms: _50  and  _51
REMARK   23  A    between atoms: _56  and  _58
REMARK   24  A    between atoms: _58  and  _59
REMARK   25  A    between atoms: _58  and  _61
REMARK   26  A    between atoms: _61  and  _62
REMARK   27  A    between atoms: _62  and  _63
REMARK   28  A    between atoms: _63  and  _64
REMARK   29  A    between atoms: _73  and  _75
REMARK   30  A    between atoms: _75  and  _76
REMARK   31  A    between atoms: _75  and  _78
REMARK   32  A    between atoms: _78  and  _79
REMARK   33  A    between atoms: _84  and  _86
REMARK   34  A    between atoms: _86  and  _87
REMARK   35  A    between atoms: _86  and  _89
REMARK   36  A    between atoms: _89  and  _90
REMARK   37  A    between atoms: _100  and  _102
REMARK   38  A    between atoms: _102  and  _103
REMARK   39  A    between atoms: _102  and  _105
REMARK   40  A    between atoms: _105  and  _106
REMARK   41  A    between atoms: _111  and  _113
REMARK   42  A    between atoms: _113  and  _114
REMARK   43  A    between atoms: _113  and  _116
REMARK   44  A    between atoms: _116  and  _117
REMARK   45  A    between atoms: _117  and  _118
REMARK   46  A    between atoms: _121  and  _123
REMARK   47  A    between atoms: _123  and  _124
REMARK   48  A    between atoms: _123  and  _126
REMARK   49  A    between atoms: _129  and  _131
REMARK   50  A    between atoms: _131  and  _132
REMARK   51  A    between atoms: _131  and  _134
REMARK   52  A    between atoms: _134  and  _135
REMARK   53  A    between atoms: _140  and  _142
REMARK   54  A    between atoms: _142  and  _143
REMARK   55  A    between atoms: _142  and  _145
REMARK   56  A    between atoms: _148  and  _150
REMARK   57  A    between atoms: _150  and  _151
REMARK   58  A    between atoms: _150  and  _153
REMARK   59  A    between atoms: _153  and  _154
REMARK   60  A    between atoms: _160  and  _162
REMARK   61  A    between atoms: _162  and  _163
REMARK   62  A    between atoms: _162  and  _165
REMARK   63  A    between atoms: _165  and  _166
REMARK   64  A    between atoms: _171  and  _173
REMARK   65  A    between atoms: _173  and  _174
REMARK   66  A    between atoms: _173  and  _176
REMARK   67  A    between atoms: _176  and  _177
REMARK   68  A    between atoms: _182  and  _184
REMARK   69  A    between atoms: _184  and  _185
REMARK   70  A    between atoms: _184  and  _187
REMARK   71  A    between atoms: _187  and  _188
REMARK   72  A    between atoms: _193  and  _195
REMARK   73  A    between atoms: _195  and  _196
REMARK   74  A    between atoms: _195  and  _198
REMARK   75  A    between atoms: _198  and  _199
REMARK   76  A    between atoms: _204  and  _205
REMARK   77  A    between atoms: _207  and  _209
REMARK   78  A    between atoms: _209  and  _210
REMARK   79  A    between atoms: _209  and  _212
REMARK   80  A    between atoms: _212  and  _213
REMARK   81  A    between atoms: _218  and  _219
REMARK   82  A    between atoms: _221  and  _223
REMARK   83  A    between atoms: _223  and  _224
REMARK   84  A    between atoms: _223  and  _226
REMARK   85  A    between atoms: _226  and  _227
REMARK   86  A    between atoms: _227  and  _228
REMARK   87  A    between atoms: _230  and  _232
REMARK   88  A    between atoms: _232  and  _233
REMARK   89  A    between atoms: _232  and  _235
REMARK   90  A    between atoms: _235  and  _236
REMARK   91  A    between atoms: _246  and  _248
REMARK   92  A    between atoms: _248  and  _249
REMARK   93  A    between atoms: _248  and  _251
REMARK   94  A    between atoms: _251  and  _252
REMARK   95  A    between atoms: _255  and  _257
REMARK   96  A    between atoms: _257  and  _258
REMARK   97  A    between atoms: _257  and  _260
REMARK   98  A    between atoms: _260  and  _261
REMARK   99  A    between atoms: _261  and  _262
REMARK  100  A    between atoms: _265  and  _267
REMARK  101  A    between atoms: _267  and  _268
REMARK  102  A    between atoms: _267  and  _270
REMARK  103  A    between atoms: _270  and  _271
REMARK  104  A    between atoms: _276  and  _278
REMARK  105  A    between atoms: _278  and  _279
REMARK  106  A    between atoms: _281  and  _283
REMARK  107  A    between atoms: _283  and  _284
REMARK  108  A    between atoms: _287  and  _289
REMARK  109  A    between atoms: _289  and  _290
REMARK  110  A    between atoms: _293  and  _295
REMARK  111  A    between atoms: _295  and  _296
REMARK  112  A    between atoms: _295  and  _298
REMARK  113  A    between atoms: _298  and  _299
REMARK  114  A    between atoms: _309  and  _311
REMARK  115  A    between atoms: _311  and  _312
REMARK  116  A    between atoms: _311  and  _314
REMARK  117  A    between atoms: _314  and  _315
REMARK  118  A    between atoms: _317  and  _319
REMARK  119  A    between atoms: _319  and  _320
REMARK  120  A    between atoms: _319  and  _322
REMARK  121  A    between atoms: _322  and  _323
REMARK  122  A    between atoms: _328  and  _330
REMARK  123  A    between atoms: _330  and  _331
REMARK  124  A    between atoms: _330  and  _333
REMARK  125  A    between atoms: _333  and  _334
REMARK  126  A    between atoms: _340  and  _342
REMARK  127  A    between atoms: _342  and  _343
REMARK  128  A    between atoms: _342  and  _345
REMARK  129  A    between atoms: _345  and  _346
REMARK  130  A    between atoms: _346  and  _347
REMARK  131  A    between atoms: _350  and  _352
REMARK  132  A    between atoms: _352  and  _353
REMARK  133  A    between atoms: _352  and  _355
REMARK  134  A    between atoms: _355  and  _356
REMARK  135  A    between atoms: _366  and  _368
REMARK  136  A    between atoms: _368  and  _369
REMARK  137  A    between atoms: _368  and  _371
REMARK  138  A    between atoms: _371  and  _372
REMARK  139  A    between atoms: _372  and  _373
REMARK  140  A    between atoms: _376  and  _378
REMARK  141  A    between atoms: _378  and  _379
REMARK  142  A    between atoms: _378  and  _381
REMARK  143  A    between atoms: _381  and  _382
REMARK  144  A    between atoms: _382  and  _383
REMARK  145  A    between atoms: _383  and  _384
REMARK  146  A    between atoms: _384  and  _385
REMARK  147  A    between atoms: _389  and  _391
REMARK  148  A    between atoms: _391  and  _392
REMARK  149  A    between atoms: _391  and  _394
REMARK  150  A    between atoms: _394  and  _395
REMARK                            x       y       z     vdW  Elec       q    Type
REMARK                         _______ _______ _______ _____ _____    ______ ____
ROOT
ATOM      1  O   HOH     1       7.482   8.098   9.549  0.00  0.00    +0.000 OA
ENDROOT
TORSDOF 0
REMARK  Name = ../refined-set-2016/1w3j/1w3j_pocket.pdb
REMARK  150 active torsions:
REMARK  status: ('A' for Active; 'I' for Inactive)
REMARK    1  A    between atoms: _1  and  _3
REMARK    2  A    between atoms: _3  and  _4
REMARK    3  A    between atoms: _7  and  _9
REMARK    4  A    between atoms: _9  and  _10
REMARK    5  A    between atoms: _9  and  _12
REMARK    6  A    between atoms: _12  and  _13
REMARK    7  A    between atoms: _16  and  _18
REMARK    8  A    between atoms: _18  and  _19
REMARK    9  A    between atoms: _22  and  _24
REMARK   10  A    between atoms: _24  and  _25
REMARK   11  A    between atoms: _24  and  _27
REMARK   12  A    between atoms: _27  and  _28
REMARK   13  A    between atoms: _30  and  _32
REMARK   14  A    between atoms: _32  and  _33
REMARK   15  A    between atoms: _32  and  _35
REMARK   16  A    between atoms: _35  and  _36
REMARK   17  A    between atoms: _41  and  _42
REMARK   18  A    between atoms: _44  and  _46
REMARK   19  A    between atoms: _46  and  _47
REMARK   20  A    between atoms: _46  and  _49
REMARK   21  A    between atoms: _49  and  _50
REMARK   22  A    between atoms: _50  and  _51
REMARK   23  A    between atoms: _56  and  _58
REMARK   24  A    between atoms: _58  and  _59
REMARK   25  A    between atoms: _58  and  _61
REMARK   26  A    between atoms: _61  and  _62
REMARK   27  A    between atoms: _62  and  _63
REMARK   28  A    between atoms: _63  and  _64
REMARK   29  A    between atoms: _73  and  _75
REMARK   30  A    between atoms: _75  and  _76
REMARK   31  A    between atoms: _75  and  _78
REMARK   32  A    between atoms: _78  and  _79
REMARK   33  A    between atoms: _84  and  _86
REMARK   34  A    between atoms: _86  and  _87
REMARK   35  A    between atoms: _86  and  _89
REMARK   36  A    between atoms: _89  and  _90
REMARK   37  A    between atoms: _100  and  _102
REMARK   38  A    between atoms: _102  and  _103
REMARK   39  A    between atoms: _102  and  _105
REMARK   40  A    between atoms: _105  and  _106
REMARK   41  A    between atoms: _111  and  _113
REMARK   42  A    between atoms: _113  and  _114
REMARK   43  A    between atoms: _113  and  _116
REMARK   44  A    between atoms: _116  and  _117
REMARK   45  A    between atoms: _117  and  _118
REMARK   46  A    between atoms: _121  and  _123
REMARK   47  A    between atoms: _123  and  _124
REMARK   48  A    between atoms: _123  and  _126
REMARK   49  A    between atoms: _129  and  _131
REMARK   50  A    between atoms: _131  and  _132
REMARK   51  A    between atoms: _131  and  _134
REMARK   52  A    between atoms: _134  and  _135
REMARK   53  A    between atoms: _140  and  _142
REMARK   54  A    between atoms: _142  and  _143
REMARK   55  A    between atoms: _142  and  _145
REMARK   56  A    between atoms: _148  and  _150
REMARK   57  A    between atoms: _150  and  _151
REMARK   58  A    between atoms: _150  and  _153
REMARK   59  A    between atoms: _153  and  _154
REMARK   60  A    between atoms: _160  and  _162
REMARK   61  A    between atoms: _162  and  _163
REMARK   62  A    between atoms: _162  and  _165
REMARK   63  A    between atoms: _165  and  _166
REMARK   64  A    between atoms: _171  and  _173
REMARK   65  A    between atoms: _173  and  _174
REMARK   66  A    between atoms: _173  and  _176
REMARK   67  A    between atoms: _176  and  _177
REMARK   68  A    between atoms: _182  and  _184
REMARK   69  A    between atoms: _184  and  _185
REMARK   70  A    between atoms: _184  and  _187
REMARK   71  A    between atoms: _187  and  _188
REMARK   72  A    between atoms: _193  and  _195
REMARK   73  A    between atoms: _195  and  _196
REMARK   74  A    between atoms: _195  and  _198
REMARK   75  A    between atoms: _198  and  _199
REMARK   76  A    between atoms: _204  and  _205
REMARK   77  A    between atoms: _207  and  _209
REMARK   78  A    between atoms: _209  and  _210
REMARK   79  A    between atoms: _209  and  _212
REMARK   80  A    between atoms: _212  and  _213
REMARK   81  A    between atoms: _218  and  _219
REMARK   82  A    between atoms: _221  and  _223
REMARK   83  A    between atoms: _223  and  _224
REMARK   84  A    between atoms: _223  and  _226
REMARK   85  A    between atoms: _226  and  _227
REMARK   86  A    between atoms: _227  and  _228
REMARK   87  A    between atoms: _230  and  _232
REMARK   88  A    between atoms: _232  and  _233
REMARK   89  A    between atoms: _232  and  _235
REMARK   90  A    between atoms: _235  and  _236
REMARK   91  A    between atoms: _246  and  _248
REMARK   92  A    between atoms: _248  and  _249
REMARK   93  A    between atoms: _248  and  _251
REMARK   94  A    between atoms: _251  and  _252
REMARK   95  A    between atoms: _255  and  _257
REMARK   96  A    between atoms: _257  and  _258
REMARK   97  A    between atoms: _257  and  _260
REMARK   98  A    between atoms: _260  and  _261
REMARK   99  A    between atoms: _261  and  _262
REMARK  100  A    between atoms: _265  and  _267
REMARK  101  A    between atoms: _267  and  _268
REMARK  102  A    between atoms: _267  and  _270
REMARK  103  A    between atoms: _270  and  _271
REMARK  104  A    between atoms: _276  and  _278
REMARK  105  A    between atoms: _278  and  _279
REMARK  106  A    between atoms: _281  and  _283
REMARK  107  A    between atoms: _283  and  _284
REMARK  108  A    between atoms: _287  and  _289
REMARK  109  A    between atoms: _289  and  _290
REMARK  110  A    between atoms: _293  and  _295
REMARK  111  A    between atoms: _295  and  _296
REMARK  112  A    between atoms: _295  and  _298
REMARK  113  A    between atoms: _298  and  _299
REMARK  114  A    between atoms: _309  and  _311
REMARK  115  A    between atoms: _311  and  _312
REMARK  116  A    between atoms: _311  and  _314
REMARK  117  A    between atoms: _314  and  _315
REMARK  118  A    between atoms: _317  and  _319
REMARK  119  A    between atoms: _319  and  _320
REMARK  120  A    between atoms: _319  and  _322
REMARK  121  A    between atoms: _322  and  _323
REMARK  122  A    between atoms: _328  and  _330
REMARK  123  A    between atoms: _330  and  _331
REMARK  124  A    between atoms: _330  and  _333
REMARK  125  A    between atoms: _333  and  _334
REMARK  126  A    between atoms: _340  and  _342
REMARK  127  A    between atoms: _342  and  _343
REMARK  128  A    between atoms: _342  and  _345
REMARK  129  A    between atoms: _345  and  _346
REMARK  130  A    between atoms: _346  and  _347
REMARK  131  A    between atoms: _350  and  _352
REMARK  132  A    between atoms: _352  and  _353
REMARK  133  A    between atoms: _352  and  _355
REMARK  134  A    between atoms: _355  and  _356
REMARK  135  A    between atoms: _366  and  _368
REMARK  136  A    between atoms: _368  and  _369
REMARK  137  A    between atoms: _368  and  _371
REMARK  138  A    between atoms: _371  and  _372
REMARK  139  A    between atoms: _372  and  _373
REMARK  140  A    between atoms: _376  and  _378
REMARK  141  A    between atoms: _378  and  _379
REMARK  142  A    between atoms: _378  and  _381
REMARK  143  A    between atoms: _381  and  _382
REMARK  144  A    between atoms: _382  and  _383
REMARK  145  A    between atoms: _383  and  _384
REMARK  146  A    between atoms: _384  and  _385
REMARK  147  A    between atoms: _389  and  _391
REMARK  148  A    between atoms: _391  and  _392
REMARK  149  A    between atoms: _391  and  _394
REMARK  150  A    between atoms: _394  and  _395
REMARK                            x       y       z     vdW  Elec       q    Type
REMARK                         _______ _______ _______ _____ _____    ______ ____
ROOT
ATOM      1  O   HOH     1      -2.450   9.727  16.297  0.00  0.00    +0.000 OA
ENDROOT
TORSDOF 0
REMARK  Name = ../refined-set-2016/1w3j/1w3j_pocket.pdb
REMARK  150 active torsions:
REMARK  status: ('A' for Active; 'I' for Inactive)
REMARK    1  A    between atoms: _1  and  _3
REMARK    2  A    between atoms: _3  and  _4
REMARK    3  A    between atoms: _7  and  _9
REMARK    4  A    between atoms: _9  and  _10
REMARK    5  A    between atoms: _9  and  _12
REMARK    6  A    between atoms: _12  and  _13
REMARK    7  A    between atoms: _16  and  _18
REMARK    8  A    between atoms: _18  and  _19
REMARK    9  A    between atoms: _22  and  _24
REMARK   10  A    between atoms: _24  and  _25
REMARK   11  A    between atoms: _24  and  _27
REMARK   12  A    between atoms: _27  and  _28
REMARK   13  A    between atoms: _30  and  _32
REMARK   14  A    between atoms: _32  and  _33
REMARK   15  A    between atoms: _32  and  _35
REMARK   16  A    between atoms: _35  and  _36
REMARK   17  A    between atoms: _41  and  _42
REMARK   18  A    between atoms: _44  and  _46
REMARK   19  A    between atoms: _46  and  _47
REMARK   20  A    between atoms: _46  and  _49
REMARK   21  A    between atoms: _49  and  _50
REMARK   22  A    between atoms: _50  and  _51
REMARK   23  A    between atoms: _56  and  _58
REMARK   24  A    between atoms: _58  and  _59
REMARK   25  A    between atoms: _58  and  _61
REMARK   26  A    between atoms: _61  and  _62
REMARK   27  A    between atoms: _62  and  _63
REMARK   28  A    between atoms: _63  and  _64
REMARK   29  A    between atoms: _73  and  _75
REMARK   30  A    between atoms: _75  and  _76
REMARK   31  A    between atoms: _75  and  _78
REMARK   32  A    between atoms: _78  and  _79
REMARK   33  A    between atoms: _84  and  _86
REMARK   34  A    between atoms: _86  and  _87
REMARK   35  A    between atoms: _86  and  _89
REMARK   36  A    between atoms: _89  and  _90
REMARK   37  A    between atoms: _100  and  _102
REMARK   38  A    between atoms: _102  and  _103
REMARK   39  A    between atoms: _102  and  _105
REMARK   40  A    between atoms: _105  and  _106
REMARK   41  A    between atoms: _111  and  _113
REMARK   42  A    between atoms: _113  and  _114
REMARK   43  A    between atoms: _113  and  _116
REMARK   44  A    between atoms: _116  and  _117
REMARK   45  A    between atoms: _117  and  _118
REMARK   46  A    between atoms: _121  and  _123
REMARK   47  A    between atoms: _123  and  _124
REMARK   48  A    between atoms: _123  and  _126
REMARK   49  A    between atoms: _129  and  _131
REMARK   50  A    between atoms: _131  and  _132
REMARK   51  A    between atoms: _131  and  _134
REMARK   52  A    between atoms: _134  and  _135
REMARK   53  A    between atoms: _140  and  _142
REMARK   54  A    between atoms: _142  and  _143
REMARK   55  A    between atoms: _142  and  _145
REMARK   56  A    between atoms: _148  and  _150
REMARK   57  A    between atoms: _150  and  _151
REMARK   58  A    between atoms: _150  and  _153
REMARK   59  A    between atoms: _153  and  _154
REMARK   60  A    between atoms: _160  and  _162
REMARK   61  A    between atoms: _162  and  _163
REMARK   62  A    between atoms: _162  and  _165
REMARK   63  A    between atoms: _165  and  _166
REMARK   64  A    between atoms: _171  and  _173
REMARK   65  A    between atoms: _173  and  _174
REMARK   66  A    between atoms: _173  and  _176
REMARK   67  A    between atoms: _176  and  _177
REMARK   68  A    between atoms: _182  and  _184
REMARK   69  A    between atoms: _184  and  _185
REMARK   70  A    between atoms: _184  and  _187
REMARK   71  A    between atoms: _187  and  _188
REMARK   72  A    between atoms: _193  and  _195
REMARK   73  A    between atoms: _195  and  _196
REMARK   74  A    between atoms: _195  and  _198
REMARK   75  A    between atoms: _198  and  _199
REMARK   76  A    between atoms: _204  and  _205
REMARK   77  A    between atoms: _207  and  _209
REMARK   78  A    between atoms: _209  and  _210
REMARK   79  A    between atoms: _209  and  _212
REMARK   80  A    between atoms: _212  and  _213
REMARK   81  A    between atoms: _218  and  _219
REMARK   82  A    between atoms: _221  and  _223
REMARK   83  A    between atoms: _223  and  _224
REMARK   84  A    between atoms: _223  and  _226
REMARK   85  A    between atoms: _226  and  _227
REMARK   86  A    between atoms: _227  and  _228
REMARK   87  A    between atoms: _230  and  _232
REMARK   88  A    between atoms: _232  and  _233
REMARK   89  A    between atoms: _232  and  _235
REMARK   90  A    between atoms: _235  and  _236
REMARK   91  A    between atoms: _246  and  _248
REMARK   92  A    between atoms: _248  and  _249
REMARK   93  A    between atoms: _248  and  _251
REMARK   94  A    between atoms: _251  and  _252
REMARK   95  A    between atoms: _255  and  _257
REMARK   96  A    between atoms: _257  and  _258
REMARK   97  A    between atoms: _257  and  _260
REMARK   98  A    between atoms: _260  and  _261
REMARK   99  A    between atoms: _261  and  _262
REMARK  100  A    between atoms: _265  and  _267
REMARK  101  A    between atoms: _267  and  _268
REMARK  102  A    between atoms: _267  and  _270
REMARK  103  A    between atoms: _270  and  _271
REMARK  104  A    between atoms: _276  and  _278
REMARK  105  A    between atoms: _278  and  _279
REMARK  106  A    between atoms: _281  and  _283
REMARK  107  A    between atoms: _283  and  _284
REMARK  108  A    between atoms: _287  and  _289
REMARK  109  A    between atoms: _289  and  _290
REMARK  110  A    between atoms: _293  and  _295
REMARK  111  A    between atoms: _295  and  _296
REMARK  112  A    between atoms: _295  and  _298
REMARK  113  A    between atoms: _298  and  _299
REMARK  114  A    between atoms: _309  and  _311
REMARK  115  A    between atoms: _311  and  _312
REMARK  116  A    between atoms: _311  and  _314
REMARK  117  A    between atoms: _314  and  _315
REMARK  118  A    between atoms: _317  and  _319
REMARK  119  A    between atoms: _319  and  _320
REMARK  120  A    between atoms: _319  and  _322
REMARK  121  A    between atoms: _322  and  _323
REMARK  122  A    between atoms: _328  and  _330
REMARK  123  A    between atoms: _330  and  _331
REMARK  124  A    between atoms: _330  and  _333
REMARK  125  A    between atoms: _333  and  _334
REMARK  126  A    between atoms: _340  and  _342
REMARK  127  A    between atoms: _342  and  _343
REMARK  128  A    between atoms: _342  and  _345
REMARK  129  A    between atoms: _345  and  _346
REMARK  130  A    between atoms: _346  and  _347
REMARK  131  A    between atoms: _350  and  _352
REMARK  132  A    between atoms: _352  and  _353
REMARK  133  A    between atoms: _352  and  _355
REMARK  134  A    between atoms: _355  and  _356
REMARK  135  A    between atoms: _366  and  _368
REMARK  136  A    between atoms: _368  and  _369
REMARK  137  A    between atoms: _368  and  _371
REMARK  138  A    between atoms: _371  and  _372
REMARK  139  A    between atoms: _372  and  _373
REMARK  140  A    between atoms: _376  and  _378
REMARK  141  A    between atoms: _378  and  _379
REMARK  142  A    between atoms: _378  and  _381
REMARK  143  A    between atoms: _381  and  _382
REMARK  144  A    between atoms: _382  and  _383
REMARK  145  A    between atoms: _383  and  _384
REMARK  146  A    between atoms: _384  and  _385
REMARK  147  A    between atoms: _389  and  _391
REMARK  148  A    between atoms: _391  and  _392
REMARK  149  A    between atoms: _391  and  _394
REMARK  150  A    between atoms: _394  and  _395
REMARK                            x       y       z     vdW  Elec       q    Type
REMARK                         _______ _______ _______ _____ _____    ______ ____
ROOT
ATOM      1  O   HOH     1      -4.246   4.929  15.048  0.00  0.00    +0.000 OA
ENDROOT
TORSDOF 0
REMARK  Name = ../refined-set-2016/1w3j/1w3j_pocket.pdb
REMARK  150 active torsions:
REMARK  status: ('A' for Active; 'I' for Inactive)
REMARK    1  A    between atoms: _1  and  _3
REMARK    2  A    between atoms: _3  and  _4
REMARK    3  A    between atoms: _7  and  _9
REMARK    4  A    between atoms: _9  and  _10
REMARK    5  A    between atoms: _9  and  _12
REMARK    6  A    between atoms: _12  and  _13
REMARK    7  A    between atoms: _16  and  _18
REMARK    8  A    between atoms: _18  and  _19
REMARK    9  A    between atoms: _22  and  _24
REMARK   10  A    between atoms: _24  and  _25
REMARK   11  A    between atoms: _24  and  _27
REMARK   12  A    between atoms: _27  and  _28
REMARK   13  A    between atoms: _30  and  _32
REMARK   14  A    between atoms: _32  and  _33
REMARK   15  A    between atoms: _32  and  _35
REMARK   16  A    between atoms: _35  and  _36
REMARK   17  A    between atoms: _41  and  _42
REMARK   18  A    between atoms: _44  and  _46
REMARK   19  A    between atoms: _46  and  _47
REMARK   20  A    between atoms: _46  and  _49
REMARK   21  A    between atoms: _49  and  _50
REMARK   22  A    between atoms: _50  and  _51
REMARK   23  A    between atoms: _56  and  _58
REMARK   24  A    between atoms: _58  and  _59
REMARK   25  A    between atoms: _58  and  _61
REMARK   26  A    between atoms: _61  and  _62
REMARK   27  A    between atoms: _62  and  _63
REMARK   28  A    between atoms: _63  and  _64
REMARK   29  A    between atoms: _73  and  _75
REMARK   30  A    between atoms: _75  and  _76
REMARK   31  A    between atoms: _75  and  _78
REMARK   32  A    between atoms: _78  and  _79
REMARK   33  A    between atoms: _84  and  _86
REMARK   34  A    between atoms: _86  and  _87
REMARK   35  A    between atoms: _86  and  _89
REMARK   36  A    between atoms: _89  and  _90
REMARK   37  A    between atoms: _100  and  _102
REMARK   38  A    between atoms: _102  and  _103
REMARK   39  A    between atoms: _102  and  _105
REMARK   40  A    between atoms: _105  and  _106
REMARK   41  A    between atoms: _111  and  _113
REMARK   42  A    between atoms: _113  and  _114
REMARK   43  A    between atoms: _113  and  _116
REMARK   44  A    between atoms: _116  and  _117
REMARK   45  A    between atoms: _117  and  _118
REMARK   46  A    between atoms: _121  and  _123
REMARK   47  A    between atoms: _123  and  _124
REMARK   48  A    between atoms: _123  and  _126
REMARK   49  A    between atoms: _129  and  _131
REMARK   50  A    between atoms: _131  and  _132
REMARK   51  A    between atoms: _131  and  _134
REMARK   52  A    between atoms: _134  and  _135
REMARK   53  A    between atoms: _140  and  _142
REMARK   54  A    between atoms: _142  and  _143
REMARK   55  A    between atoms: _142  and  _145
REMARK   56  A    between atoms: _148  and  _150
REMARK   57  A    between atoms: _150  and  _151
REMARK   58  A    between atoms: _150  and  _153
REMARK   59  A    between atoms: _153  and  _154
REMARK   60  A    between atoms: _160  and  _162
REMARK   61  A    between atoms: _162  and  _163
REMARK   62  A    between atoms: _162  and  _165
REMARK   63  A    between atoms: _165  and  _166
REMARK   64  A    between atoms: _171  and  _173
REMARK   65  A    between atoms: _173  and  _174
REMARK   66  A    between atoms: _173  and  _176
REMARK   67  A    between atoms: _176  and  _177
REMARK   68  A    between atoms: _182  and  _184
REMARK   69  A    between atoms: _184  and  _185
REMARK   70  A    between atoms: _184  and  _187
REMARK   71  A    between atoms: _187  and  _188
REMARK   72  A    between atoms: _193  and  _195
REMARK   73  A    between atoms: _195  and  _196
REMARK   74  A    between atoms: _195  and  _198
REMARK   75  A    between atoms: _198  and  _199
REMARK   76  A    between atoms: _204  and  _205
REMARK   77  A    between atoms: _207  and  _209
REMARK   78  A    between atoms: _209  and  _210
REMARK   79  A    between atoms: _209  and  _212
REMARK   80  A    between atoms: _212  and  _213
REMARK   81  A    between atoms: _218  and  _219
REMARK   82  A    between atoms: _221  and  _223
REMARK   83  A    between atoms: _223  and  _224
REMARK   84  A    between atoms: _223  and  _226
REMARK   85  A    between atoms: _226  and  _227
REMARK   86  A    between atoms: _227  and  _228
REMARK   87  A    between atoms: _230  and  _232
REMARK   88  A    between atoms: _232  and  _233
REMARK   89  A    between atoms: _232  and  _235
REMARK   90  A    between atoms: _235  and  _236
REMARK   91  A    between atoms: _246  and  _248
REMARK   92  A    between atoms: _248  and  _249
REMARK   93  A    between atoms: _248  and  _251
REMARK   94  A    between atoms: _251  and  _252
REMARK   95  A    between atoms: _255  and  _257
REMARK   96  A    between atoms: _257  and  _258
REMARK   97  A    between atoms: _257  and  _260
REMARK   98  A    between atoms: _260  and  _261
REMARK   99  A    between atoms: _261  and  _262
REMARK  100  A    between atoms: _265  and  _267
REMARK  101  A    between atoms: _267  and  _268
REMARK  102  A    between atoms: _267  and  _270
REMARK  103  A    between atoms: _270  and  _271
REMARK  104  A    between atoms: _276  and  _278
REMARK  105  A    between atoms: _278  and  _279
REMARK  106  A    between atoms: _281  and  _283
REMARK  107  A    between atoms: _283  and  _284
REMARK  108  A    between atoms: _287  and  _289
REMARK  109  A    between atoms: _289  and  _290
REMARK  110  A    between atoms: _293  and  _295
REMARK  111  A    between atoms: _295  and  _296
REMARK  112  A    between atoms: _295  and  _298
REMARK  113  A    between atoms: _298  and  _299
REMARK  114  A    between atoms: _309  and  _311
REMARK  115  A    between atoms: _311  and  _312
REMARK  116  A    between atoms: _311  and  _314
REMARK  117  A    between atoms: _314  and  _315
REMARK  118  A    between atoms: _317  and  _319
REMARK  119  A    between atoms: _319  and  _320
REMARK  120  A    between atoms: _319  and  _322
REMARK  121  A    between atoms: _322  and  _323
REMARK  122  A    between atoms: _328  and  _330
REMARK  123  A    between atoms: _330  and  _331
REMARK  124  A    between atoms: _330  and  _333
REMARK  125  A    between atoms: _333  and  _334
REMARK  126  A    between atoms: _340  and  _342
REMARK  127  A    between atoms: _342  and  _343
REMARK  128  A    between atoms: _342  and  _345
REMARK  129  A    between atoms: _345  and  _346
REMARK  130  A    between atoms: _346  and  _347
REMARK  131  A    between atoms: _350  and  _352
REMARK  132  A    between atoms: _352  and  _353
REMARK  133  A    between atoms: _352  and  _355
REMARK  134  A    between atoms: _355  and  _356
REMARK  135  A    between atoms: _366  and  _368
REMARK  136  A    between atoms: _368  and  _369
REMARK  137  A    between atoms: _368  and  _371
REMARK  138  A    between atoms: _371  and  _372
REMARK  139  A    between atoms: _372  and  _373
REMARK  140  A    between atoms: _376  and  _378
REMARK  141  A    between atoms: _378  and  _379
REMARK  142  A    between atoms: _378  and  _381
REMARK  143  A    between atoms: _381  and  _382
REMARK  144  A    between atoms: _382  and  _383
REMARK  145  A    between atoms: _383  and  _384
REMARK  146  A    between atoms: _384  and  _385
REMARK  147  A    between atoms: _389  and  _391
REMARK  148  A    between atoms: _391  and  _392
REMARK  149  A    between atoms: _391  and  _394
REMARK  150  A    between atoms: _394  and  _395
REMARK                            x       y       z     vdW  Elec       q    Type
REMARK                         _______ _______ _______ _____ _____    ______ ____
ROOT
ATOM      1  O   HOH     1      -8.946   6.047   9.384  0.00  0.00    +0.000 OA
ENDROOT
TORSDOF 0
REMARK  Name = ../refined-set-2016/1w3j/1w3j_pocket.pdb
REMARK  150 active torsions:
REMARK  status: ('A' for Active; 'I' for Inactive)
REMARK    1  A    between atoms: _1  and  _3
REMARK    2  A    between atoms: _3  and  _4
REMARK    3  A    between atoms: _7  and  _9
REMARK    4  A    between atoms: _9  and  _10
REMARK    5  A    between atoms: _9  and  _12
REMARK    6  A    between atoms: _12  and  _13
REMARK    7  A    between atoms: _16  and  _18
REMARK    8  A    between atoms: _18  and  _19
REMARK    9  A    between atoms: _22  and  _24
REMARK   10  A    between atoms: _24  and  _25
REMARK   11  A    between atoms: _24  and  _27
REMARK   12  A    between atoms: _27  and  _28
REMARK   13  A    between atoms: _30  and  _32
REMARK   14  A    between atoms: _32  and  _33
REMARK   15  A    between atoms: _32  and  _35
REMARK   16  A    between atoms: _35  and  _36
REMARK   17  A    between atoms: _41  and  _42
REMARK   18  A    between atoms: _44  and  _46
REMARK   19  A    between atoms: _46  and  _47
REMARK   20  A    between atoms: _46  and  _49
REMARK   21  A    between atoms: _49  and  _50
REMARK   22  A    between atoms: _50  and  _51
REMARK   23  A    between atoms: _56  and  _58
REMARK   24  A    between atoms: _58  and  _59
REMARK   25  A    between atoms: _58  and  _61
REMARK   26  A    between atoms: _61  and  _62
REMARK   27  A    between atoms: _62  and  _63
REMARK   28  A    between atoms: _63  and  _64
REMARK   29  A    between atoms: _73  and  _75
REMARK   30  A    between atoms: _75  and  _76
REMARK   31  A    between atoms: _75  and  _78
REMARK   32  A    between atoms: _78  and  _79
REMARK   33  A    between atoms: _84  and  _86
REMARK   34  A    between atoms: _86  and  _87
REMARK   35  A    between atoms: _86  and  _89
REMARK   36  A    between atoms: _89  and  _90
REMARK   37  A    between atoms: _100  and  _102
REMARK   38  A    between atoms: _102  and  _103
REMARK   39  A    between atoms: _102  and  _105
REMARK   40  A    between atoms: _105  and  _106
REMARK   41  A    between atoms: _111  and  _113
REMARK   42  A    between atoms: _113  and  _114
REMARK   43  A    between atoms: _113  and  _116
REMARK   44  A    between atoms: _116  and  _117
REMARK   45  A    between atoms: _117  and  _118
REMARK   46  A    between atoms: _121  and  _123
REMARK   47  A    between atoms: _123  and  _124
REMARK   48  A    between atoms: _123  and  _126
REMARK   49  A    between atoms: _129  and  _131
REMARK   50  A    between atoms: _131  and  _132
REMARK   51  A    between atoms: _131  and  _134
REMARK   52  A    between atoms: _134  and  _135
REMARK   53  A    between atoms: _140  and  _142
REMARK   54  A    between atoms: _142  and  _143
REMARK   55  A    between atoms: _142  and  _145
REMARK   56  A    between atoms: _148  and  _150
REMARK   57  A    between atoms: _150  and  _151
REMARK   58  A    between atoms: _150  and  _153
REMARK   59  A    between atoms: _153  and  _154
REMARK   60  A    between atoms: _160  and  _162
REMARK   61  A    between atoms: _162  and  _163
REMARK   62  A    between atoms: _162  and  _165
REMARK   63  A    between atoms: _165  and  _166
REMARK   64  A    between atoms: _171  and  _173
REMARK   65  A    between atoms: _173  and  _174
REMARK   66  A    between atoms: _173  and  _176
REMARK   67  A    between atoms: _176  and  _177
REMARK   68  A    between atoms: _182  and  _184
REMARK   69  A    between atoms: _184  and  _185
REMARK   70  A    between atoms: _184  and  _187
REMARK   71  A    between atoms: _187  and  _188
REMARK   72  A    between atoms: _193  and  _195
REMARK   73  A    between atoms: _195  and  _196
REMARK   74  A    between atoms: _195  and  _198
REMARK   75  A    between atoms: _198  and  _199
REMARK   76  A    between atoms: _204  and  _205
REMARK   77  A    between atoms: _207  and  _209
REMARK   78  A    between atoms: _209  and  _210
REMARK   79  A    between atoms: _209  and  _212
REMARK   80  A    between atoms: _212  and  _213
REMARK   81  A    between atoms: _218  and  _219
REMARK   82  A    between atoms: _221  and  _223
REMARK   83  A    between atoms: _223  and  _224
REMARK   84  A    between atoms: _223  and  _226
REMARK   85  A    between atoms: _226  and  _227
REMARK   86  A    between atoms: _227  and  _228
REMARK   87  A    between atoms: _230  and  _232
REMARK   88  A    between atoms: _232  and  _233
REMARK   89  A    between atoms: _232  and  _235
REMARK   90  A    between atoms: _235  and  _236
REMARK   91  A    between atoms: _246  and  _248
REMARK   92  A    between atoms: _248  and  _249
REMARK   93  A    between atoms: _248  and  _251
REMARK   94  A    between atoms: _251  and  _252
REMARK   95  A    between atoms: _255  and  _257
REMARK   96  A    between atoms: _257  and  _258
REMARK   97  A    between atoms: _257  and  _260
REMARK   98  A    between atoms: _260  and  _261
REMARK   99  A    between atoms: _261  and  _262
REMARK  100  A    between atoms: _265  and  _267
REMARK  101  A    between atoms: _267  and  _268
REMARK  102  A    between atoms: _267  and  _270
REMARK  103  A    between atoms: _270  and  _271
REMARK  104  A    between atoms: _276  and  _278
REMARK  105  A    between atoms: _278  and  _279
REMARK  106  A    between atoms: _281  and  _283
REMARK  107  A    between atoms: _283  and  _284
REMARK  108  A    between atoms: _287  and  _289
REMARK  109  A    between atoms: _289  and  _290
REMARK  110  A    between atoms: _293  and  _295
REMARK  111  A    between atoms: _295  and  _296
REMARK  112  A    between atoms: _295  and  _298
REMARK  113  A    between atoms: _298  and  _299
REMARK  114  A    between atoms: _309  and  _311
REMARK  115  A    between atoms: _311  and  _312
REMARK  116  A    between atoms: _311  and  _314
REMARK  117  A    between atoms: _314  and  _315
REMARK  118  A    between atoms: _317  and  _319
REMARK  119  A    between atoms: _319  and  _320
REMARK  120  A    between atoms: _319  and  _322
REMARK  121  A    between atoms: _322  and  _323
REMARK  122  A    between atoms: _328  and  _330
REMARK  123  A    between atoms: _330  and  _331
REMARK  124  A    between atoms: _330  and  _333
REMARK  125  A    between atoms: _333  and  _334
REMARK  126  A    between atoms: _340  and  _342
REMARK  127  A    between atoms: _342  and  _343
REMARK  128  A    between atoms: _342  and  _345
REMARK  129  A    between atoms: _345  and  _346
REMARK  130  A    between atoms: _346  and  _347
REMARK  131  A    between atoms: _350  and  _352
REMARK  132  A    between atoms: _352  and  _353
REMARK  133  A    between atoms: _352  and  _355
REMARK  134  A    between atoms: _355  and  _356
REMARK  135  A    between atoms: _366  and  _368
REMARK  136  A    between atoms: _368  and  _369
REMARK  137  A    between atoms: _368  and  _371
REMARK  138  A    between atoms: _371  and  _372
REMARK  139  A    between atoms: _372  and  _373
REMARK  140  A    between atoms: _376  and  _378
REMARK  141  A    between atoms: _378  and  _379
REMARK  142  A    between atoms: _378  and  _381
REMARK  143  A    between atoms: _381  and  _382
REMARK  144  A    between atoms: _382  and  _383
REMARK  145  A    between atoms: _383  and  _384
REMARK  146  A    between atoms: _384  and  _385
REMARK  147  A    between atoms: _389  and  _391
REMARK  148  A    between atoms: _391  and  _392
REMARK  149  A    between atoms: _391  and  _394
REMARK  150  A    between atoms: _394  and  _395
REMARK                            x       y       z     vdW  Elec       q    Type
REMARK                         _______ _______ _______ _____ _____    ______ ____
ROOT
ATOM      1  O   HOH     1      -9.555   7.211  11.630  0.00  0.00    +0.000 OA
ENDROOT
TORSDOF 0
REMARK  Name = ../refined-set-2016/1w3j/1w3j_pocket.pdb
REMARK  150 active torsions:
REMARK  status: ('A' for Active; 'I' for Inactive)
REMARK    1  A    between atoms: _1  and  _3
REMARK    2  A    between atoms: _3  and  _4
REMARK    3  A    between atoms: _7  and  _9
REMARK    4  A    between atoms: _9  and  _10
REMARK    5  A    between atoms: _9  and  _12
REMARK    6  A    between atoms: _12  and  _13
REMARK    7  A    between atoms: _16  and  _18
REMARK    8  A    between atoms: _18  and  _19
REMARK    9  A    between atoms: _22  and  _24
REMARK   10  A    between atoms: _24  and  _25
REMARK   11  A    between atoms: _24  and  _27
REMARK   12  A    between atoms: _27  and  _28
REMARK   13  A    between atoms: _30  and  _32
REMARK   14  A    between atoms: _32  and  _33
REMARK   15  A    between atoms: _32  and  _35
REMARK   16  A    between atoms: _35  and  _36
REMARK   17  A    between atoms: _41  and  _42
REMARK   18  A    between atoms: _44  and  _46
REMARK   19  A    between atoms: _46  and  _47
REMARK   20  A    between atoms: _46  and  _49
REMARK   21  A    between atoms: _49  and  _50
REMARK   22  A    between atoms: _50  and  _51
REMARK   23  A    between atoms: _56  and  _58
REMARK   24  A    between atoms: _58  and  _59
REMARK   25  A    between atoms: _58  and  _61
REMARK   26  A    between atoms: _61  and  _62
REMARK   27  A    between atoms: _62  and  _63
REMARK   28  A    between atoms: _63  and  _64
REMARK   29  A    between atoms: _73  and  _75
REMARK   30  A    between atoms: _75  and  _76
REMARK   31  A    between atoms: _75  and  _78
REMARK   32  A    between atoms: _78  and  _79
REMARK   33  A    between atoms: _84  and  _86
REMARK   34  A    between atoms: _86  and  _87
REMARK   35  A    between atoms: _86  and  _89
REMARK   36  A    between atoms: _89  and  _90
REMARK   37  A    between atoms: _100  and  _102
REMARK   38  A    between atoms: _102  and  _103
REMARK   39  A    between atoms: _102  and  _105
REMARK   40  A    between atoms: _105  and  _106
REMARK   41  A    between atoms: _111  and  _113
REMARK   42  A    between atoms: _113  and  _114
REMARK   43  A    between atoms: _113  and  _116
REMARK   44  A    between atoms: _116  and  _117
REMARK   45  A    between atoms: _117  and  _118
REMARK   46  A    between atoms: _121  and  _123
REMARK   47  A    between atoms: _123  and  _124
REMARK   48  A    between atoms: _123  and  _126
REMARK   49  A    between atoms: _129  and  _131
REMARK   50  A    between atoms: _131  and  _132
REMARK   51  A    between atoms: _131  and  _134
REMARK   52  A    between atoms: _134  and  _135
REMARK   53  A    between atoms: _140  and  _142
REMARK   54  A    between atoms: _142  and  _143
REMARK   55  A    between atoms: _142  and  _145
REMARK   56  A    between atoms: _148  and  _150
REMARK   57  A    between atoms: _150  and  _151
REMARK   58  A    between atoms: _150  and  _153
REMARK   59  A    between atoms: _153  and  _154
REMARK   60  A    between atoms: _160  and  _162
REMARK   61  A    between atoms: _162  and  _163
REMARK   62  A    between atoms: _162  and  _165
REMARK   63  A    between atoms: _165  and  _166
REMARK   64  A    between atoms: _171  and  _173
REMARK   65  A    between atoms: _173  and  _174
REMARK   66  A    between atoms: _173  and  _176
REMARK   67  A    between atoms: _176  and  _177
REMARK   68  A    between atoms: _182  and  _184
REMARK   69  A    between atoms: _184  and  _185
REMARK   70  A    between atoms: _184  and  _187
REMARK   71  A    between atoms: _187  and  _188
REMARK   72  A    between atoms: _193  and  _195
REMARK   73  A    between atoms: _195  and  _196
REMARK   74  A    between atoms: _195  and  _198
REMARK   75  A    between atoms: _198  and  _199
REMARK   76  A    between atoms: _204  and  _205
REMARK   77  A    between atoms: _207  and  _209
REMARK   78  A    between atoms: _209  and  _210
REMARK   79  A    between atoms: _209  and  _212
REMARK   80  A    between atoms: _212  and  _213
REMARK   81  A    between atoms: _218  and  _219
REMARK   82  A    between atoms: _221  and  _223
REMARK   83  A    between atoms: _223  and  _224
REMARK   84  A    between atoms: _223  and  _226
REMARK   85  A    between atoms: _226  and  _227
REMARK   86  A    between atoms: _227  and  _228
REMARK   87  A    between atoms: _230  and  _232
REMARK   88  A    between atoms: _232  and  _233
REMARK   89  A    between atoms: _232  and  _235
REMARK   90  A    between atoms: _235  and  _236
REMARK   91  A    between atoms: _246  and  _248
REMARK   92  A    between atoms: _248  and  _249
REMARK   93  A    between atoms: _248  and  _251
REMARK   94  A    between atoms: _251  and  _252
REMARK   95  A    between atoms: _255  and  _257
REMARK   96  A    between atoms: _257  and  _258
REMARK   97  A    between atoms: _257  and  _260
REMARK   98  A    between atoms: _260  and  _261
REMARK   99  A    between atoms: _261  and  _262
REMARK  100  A    between atoms: _265  and  _267
REMARK  101  A    between atoms: _267  and  _268
REMARK  102  A    between atoms: _267  and  _270
REMARK  103  A    between atoms: _270  and  _271
REMARK  104  A    between atoms: _276  and  _278
REMARK  105  A    between atoms: _278  and  _279
REMARK  106  A    between atoms: _281  and  _283
REMARK  107  A    between atoms: _283  and  _284
REMARK  108  A    between atoms: _287  and  _289
REMARK  109  A    between atoms: _289  and  _290
REMARK  110  A    between atoms: _293  and  _295
REMARK  111  A    between atoms: _295  and  _296
REMARK  112  A    between atoms: _295  and  _298
REMARK  113  A    between atoms: _298  and  _299
REMARK  114  A    between atoms: _309  and  _311
REMARK  115  A    between atoms: _311  and  _312
REMARK  116  A    between atoms: _311  and  _314
REMARK  117  A    between atoms: _314  and  _315
REMARK  118  A    between atoms: _317  and  _319
REMARK  119  A    between atoms: _319  and  _320
REMARK  120  A    between atoms: _319  and  _322
REMARK  121  A    between atoms: _322  and  _323
REMARK  122  A    between atoms: _328  and  _330
REMARK  123  A    between atoms: _330  and  _331
REMARK  124  A    between atoms: _330  and  _333
REMARK  125  A    between atoms: _333  and  _334
REMARK  126  A    between atoms: _340  and  _342
REMARK  127  A    between atoms: _342  and  _343
REMARK  128  A    between atoms: _342  and  _345
REMARK  129  A    between atoms: _345  and  _346
REMARK  130  A    between atoms: _346  and  _347
REMARK  131  A    between atoms: _350  and  _352
REMARK  132  A    between atoms: _352  and  _353
REMARK  133  A    between atoms: _352  and  _355
REMARK  134  A    between atoms: _355  and  _356
REMARK  135  A    between atoms: _366  and  _368
REMARK  136  A    between atoms: _368  and  _369
REMARK  137  A    between atoms: _368  and  _371
REMARK  138  A    between atoms: _371  and  _372
REMARK  139  A    between atoms: _372  and  _373
REMARK  140  A    between atoms: _376  and  _378
REMARK  141  A    between atoms: _378  and  _379
REMARK  142  A    between atoms: _378  and  _381
REMARK  143  A    between atoms: _381  and  _382
REMARK  144  A    between atoms: _382  and  _383
REMARK  145  A    between atoms: _383  and  _384
REMARK  146  A    between atoms: _384  and  _385
REMARK  147  A    between atoms: _389  and  _391
REMARK  148  A    between atoms: _391  and  _392
REMARK  149  A    between atoms: _391  and  _394
REMARK  150  A    between atoms: _394  and  _395
REMARK                            x       y       z     vdW  Elec       q    Type
REMARK                         _______ _______ _______ _____ _____    ______ ____
ROOT
ATOM      1  O   HOH     1      -3.816  10.631   4.028  0.00  0.00    +0.000 OA
ENDROOT
TORSDOF 0
REMARK  Name = ../refined-set-2016/1w3j/1w3j_pocket.pdb
REMARK  150 active torsions:
REMARK  status: ('A' for Active; 'I' for Inactive)
REMARK    1  A    between atoms: _1  and  _3
REMARK    2  A    between atoms: _3  and  _4
REMARK    3  A    between atoms: _7  and  _9
REMARK    4  A    between atoms: _9  and  _10
REMARK    5  A    between atoms: _9  and  _12
REMARK    6  A    between atoms: _12  and  _13
REMARK    7  A    between atoms: _16  and  _18
REMARK    8  A    between atoms: _18  and  _19
REMARK    9  A    between atoms: _22  and  _24
REMARK   10  A    between atoms: _24  and  _25
REMARK   11  A    between atoms: _24  and  _27
REMARK   12  A    between atoms: _27  and  _28
REMARK   13  A    between atoms: _30  and  _32
REMARK   14  A    between atoms: _32  and  _33
REMARK   15  A    between atoms: _32  and  _35
REMARK   16  A    between atoms: _35  and  _36
REMARK   17  A    between atoms: _41  and  _42
REMARK   18  A    between atoms: _44  and  _46
REMARK   19  A    between atoms: _46  and  _47
REMARK   20  A    between atoms: _46  and  _49
REMARK   21  A    between atoms: _49  and  _50
REMARK   22  A    between atoms: _50  and  _51
REMARK   23  A    between atoms: _56  and  _58
REMARK   24  A    between atoms: _58  and  _59
REMARK   25  A    between atoms: _58  and  _61
REMARK   26  A    between atoms: _61  and  _62
REMARK   27  A    between atoms: _62  and  _63
REMARK   28  A    between atoms: _63  and  _64
REMARK   29  A    between atoms: _73  and  _75
REMARK   30  A    between atoms: _75  and  _76
REMARK   31  A    between atoms: _75  and  _78
REMARK   32  A    between atoms: _78  and  _79
REMARK   33  A    between atoms: _84  and  _86
REMARK   34  A    between atoms: _86  and  _87
REMARK   35  A    between atoms: _86  and  _89
REMARK   36  A    between atoms: _89  and  _90
REMARK   37  A    between atoms: _100  and  _102
REMARK   38  A    between atoms: _102  and  _103
REMARK   39  A    between atoms: _102  and  _105
REMARK   40  A    between atoms: _105  and  _106
REMARK   41  A    between atoms: _111  and  _113
REMARK   42  A    between atoms: _113  and  _114
REMARK   43  A    between atoms: _113  and  _116
REMARK   44  A    between atoms: _116  and  _117
REMARK   45  A    between atoms: _117  and  _118
REMARK   46  A    between atoms: _121  and  _123
REMARK   47  A    between atoms: _123  and  _124
REMARK   48  A    between atoms: _123  and  _126
REMARK   49  A    between atoms: _129  and  _131
REMARK   50  A    between atoms: _131  and  _132
REMARK   51  A    between atoms: _131  and  _134
REMARK   52  A    between atoms: _134  and  _135
REMARK   53  A    between atoms: _140  and  _142
REMARK   54  A    between atoms: _142  and  _143
REMARK   55  A    between atoms: _142  and  _145
REMARK   56  A    between atoms: _148  and  _150
REMARK   57  A    between atoms: _150  and  _151
REMARK   58  A    between atoms: _150  and  _153
REMARK   59  A    between atoms: _153  and  _154
REMARK   60  A    between atoms: _160  and  _162
REMARK   61  A    between atoms: _162  and  _163
REMARK   62  A    between atoms: _162  and  _165
REMARK   63  A    between atoms: _165  and  _166
REMARK   64  A    between atoms: _171  and  _173
REMARK   65  A    between atoms: _173  and  _174
REMARK   66  A    between atoms: _173  and  _176
REMARK   67  A    between atoms: _176  and  _177
REMARK   68  A    between atoms: _182  and  _184
REMARK   69  A    between atoms: _184  and  _185
REMARK   70  A    between atoms: _184  and  _187
REMARK   71  A    between atoms: _187  and  _188
REMARK   72  A    between atoms: _193  and  _195
REMARK   73  A    between atoms: _195  and  _196
REMARK   74  A    between atoms: _195  and  _198
REMARK   75  A    between atoms: _198  and  _199
REMARK   76  A    between atoms: _204  and  _205
REMARK   77  A    between atoms: _207  and  _209
REMARK   78  A    between atoms: _209  and  _210
REMARK   79  A    between atoms: _209  and  _212
REMARK   80  A    between atoms: _212  and  _213
REMARK   81  A    between atoms: _218  and  _219
REMARK   82  A    between atoms: _221  and  _223
REMARK   83  A    between atoms: _223  and  _224
REMARK   84  A    between atoms: _223  and  _226
REMARK   85  A    between atoms: _226  and  _227
REMARK   86  A    between atoms: _227  and  _228
REMARK   87  A    between atoms: _230  and  _232
REMARK   88  A    between atoms: _232  and  _233
REMARK   89  A    between atoms: _232  and  _235
REMARK   90  A    between atoms: _235  and  _236
REMARK   91  A    between atoms: _246  and  _248
REMARK   92  A    between atoms: _248  and  _249
REMARK   93  A    between atoms: _248  and  _251
REMARK   94  A    between atoms: _251  and  _252
REMARK   95  A    between atoms: _255  and  _257
REMARK   96  A    between atoms: _257  and  _258
REMARK   97  A    between atoms: _257  and  _260
REMARK   98  A    between atoms: _260  and  _261
REMARK   99  A    between atoms: _261  and  _262
REMARK  100  A    between atoms: _265  and  _267
REMARK  101  A    between atoms: _267  and  _268
REMARK  102  A    between atoms: _267  and  _270
REMARK  103  A    between atoms: _270  and  _271
REMARK  104  A    between atoms: _276  and  _278
REMARK  105  A    between atoms: _278  and  _279
REMARK  106  A    between atoms: _281  and  _283
REMARK  107  A    between atoms: _283  and  _284
REMARK  108  A    between atoms: _287  and  _289
REMARK  109  A    between atoms: _289  and  _290
REMARK  110  A    between atoms: _293  and  _295
REMARK  111  A    between atoms: _295  and  _296
REMARK  112  A    between atoms: _295  and  _298
REMARK  113  A    between atoms: _298  and  _299
REMARK  114  A    between atoms: _309  and  _311
REMARK  115  A    between atoms: _311  and  _312
REMARK  116  A    between atoms: _311  and  _314
REMARK  117  A    between atoms: _314  and  _315
REMARK  118  A    between atoms: _317  and  _319
REMARK  119  A    between atoms: _319  and  _320
REMARK  120  A    between atoms: _319  and  _322
REMARK  121  A    between atoms: _322  and  _323
REMARK  122  A    between atoms: _328  and  _330
REMARK  123  A    between atoms: _330  and  _331
REMARK  124  A    between atoms: _330  and  _333
REMARK  125  A    between atoms: _333  and  _334
REMARK  126  A    between atoms: _340  and  _342
REMARK  127  A    between atoms: _342  and  _343
REMARK  128  A    between atoms: _342  and  _345
REMARK  129  A    between atoms: _345  and  _346
REMARK  130  A    between atoms: _346  and  _347
REMARK  131  A    between atoms: _350  and  _352
REMARK  132  A    between atoms: _352  and  _353
REMARK  133  A    between atoms: _352  and  _355
REMARK  134  A    between atoms: _355  and  _356
REMARK  135  A    between atoms: _366  and  _368
REMARK  136  A    between atoms: _368  and  _369
REMARK  137  A    between atoms: _368  and  _371
REMARK  138  A    between atoms: _371  and  _372
REMARK  139  A    between atoms: _372  and  _373
REMARK  140  A    between atoms: _376  and  _378
REMARK  141  A    between atoms: _378  and  _379
REMARK  142  A    between atoms: _378  and  _381
REMARK  143  A    between atoms: _381  and  _382
REMARK  144  A    between atoms: _382  and  _383
REMARK  145  A    between atoms: _383  and  _384
REMARK  146  A    between atoms: _384  and  _385
REMARK  147  A    between atoms: _389  and  _391
REMARK  148  A    between atoms: _391  and  _392
REMARK  149  A    between atoms: _391  and  _394
REMARK  150  A    between atoms: _394  and  _395
REMARK                            x       y       z     vdW  Elec       q    Type
REMARK                         _______ _______ _______ _____ _____    ______ ____
ROOT
ATOM      1  O   HOH     1      -0.260   5.075   7.350  0.00  0.00    +0.000 OA
ENDROOT
TORSDOF 0
REMARK  Name = ../refined-set-2016/1w3j/1w3j_pocket.pdb
REMARK  150 active torsions:
REMARK  status: ('A' for Active; 'I' for Inactive)
REMARK    1  A    between atoms: _1  and  _3
REMARK    2  A    between atoms: _3  and  _4
REMARK    3  A    between atoms: _7  and  _9
REMARK    4  A    between atoms: _9  and  _10
REMARK    5  A    between atoms: _9  and  _12
REMARK    6  A    between atoms: _12  and  _13
REMARK    7  A    between atoms: _16  and  _18
REMARK    8  A    between atoms: _18  and  _19
REMARK    9  A    between atoms: _22  and  _24
REMARK   10  A    between atoms: _24  and  _25
REMARK   11  A    between atoms: _24  and  _27
REMARK   12  A    between atoms: _27  and  _28
REMARK   13  A    between atoms: _30  and  _32
REMARK   14  A    between atoms: _32  and  _33
REMARK   15  A    between atoms: _32  and  _35
REMARK   16  A    between atoms: _35  and  _36
REMARK   17  A    between atoms: _41  and  _42
REMARK   18  A    between atoms: _44  and  _46
REMARK   19  A    between atoms: _46  and  _47
REMARK   20  A    between atoms: _46  and  _49
REMARK   21  A    between atoms: _49  and  _50
REMARK   22  A    between atoms: _50  and  _51
REMARK   23  A    between atoms: _56  and  _58
REMARK   24  A    between atoms: _58  and  _59
REMARK   25  A    between atoms: _58  and  _61
REMARK   26  A    between atoms: _61  and  _62
REMARK   27  A    between atoms: _62  and  _63
REMARK   28  A    between atoms: _63  and  _64
REMARK   29  A    between atoms: _73  and  _75
REMARK   30  A    between atoms: _75  and  _76
REMARK   31  A    between atoms: _75  and  _78
REMARK   32  A    between atoms: _78  and  _79
REMARK   33  A    between atoms: _84  and  _86
REMARK   34  A    between atoms: _86  and  _87
REMARK   35  A    between atoms: _86  and  _89
REMARK   36  A    between atoms: _89  and  _90
REMARK   37  A    between atoms: _100  and  _102
REMARK   38  A    between atoms: _102  and  _103
REMARK   39  A    between atoms: _102  and  _105
REMARK   40  A    between atoms: _105  and  _106
REMARK   41  A    between atoms: _111  and  _113
REMARK   42  A    between atoms: _113  and  _114
REMARK   43  A    between atoms: _113  and  _116
REMARK   44  A    between atoms: _116  and  _117
REMARK   45  A    between atoms: _117  and  _118
REMARK   46  A    between atoms: _121  and  _123
REMARK   47  A    between atoms: _123  and  _124
REMARK   48  A    between atoms: _123  and  _126
REMARK   49  A    between atoms: _129  and  _131
REMARK   50  A    between atoms: _131  and  _132
REMARK   51  A    between atoms: _131  and  _134
REMARK   52  A    between atoms: _134  and  _135
REMARK   53  A    between atoms: _140  and  _142
REMARK   54  A    between atoms: _142  and  _143
REMARK   55  A    between atoms: _142  and  _145
REMARK   56  A    between atoms: _148  and  _150
REMARK   57  A    between atoms: _150  and  _151
REMARK   58  A    between atoms: _150  and  _153
REMARK   59  A    between atoms: _153  and  _154
REMARK   60  A    between atoms: _160  and  _162
REMARK   61  A    between atoms: _162  and  _163
REMARK   62  A    between atoms: _162  and  _165
REMARK   63  A    between atoms: _165  and  _166
REMARK   64  A    between atoms: _171  and  _173
REMARK   65  A    between atoms: _173  and  _174
REMARK   66  A    between atoms: _173  and  _176
REMARK   67  A    between atoms: _176  and  _177
REMARK   68  A    between atoms: _182  and  _184
REMARK   69  A    between atoms: _184  and  _185
REMARK   70  A    between atoms: _184  and  _187
REMARK   71  A    between atoms: _187  and  _188
REMARK   72  A    between atoms: _193  and  _195
REMARK   73  A    between atoms: _195  and  _196
REMARK   74  A    between atoms: _195  and  _198
REMARK   75  A    between atoms: _198  and  _199
REMARK   76  A    between atoms: _204  and  _205
REMARK   77  A    between atoms: _207  and  _209
REMARK   78  A    between atoms: _209  and  _210
REMARK   79  A    between atoms: _209  and  _212
REMARK   80  A    between atoms: _212  and  _213
REMARK   81  A    between atoms: _218  and  _219
REMARK   82  A    between atoms: _221  and  _223
REMARK   83  A    between atoms: _223  and  _224
REMARK   84  A    between atoms: _223  and  _226
REMARK   85  A    between atoms: _226  and  _227
REMARK   86  A    between atoms: _227  and  _228
REMARK   87  A    between atoms: _230  and  _232
REMARK   88  A    between atoms: _232  and  _233
REMARK   89  A    between atoms: _232  and  _235
REMARK   90  A    between atoms: _235  and  _236
REMARK   91  A    between atoms: _246  and  _248
REMARK   92  A    between atoms: _248  and  _249
REMARK   93  A    between atoms: _248  and  _251
REMARK   94  A    between atoms: _251  and  _252
REMARK   95  A    between atoms: _255  and  _257
REMARK   96  A    between atoms: _257  and  _258
REMARK   97  A    between atoms: _257  and  _260
REMARK   98  A    between atoms: _260  and  _261
REMARK   99  A    between atoms: _261  and  _262
REMARK  100  A    between atoms: _265  and  _267
REMARK  101  A    between atoms: _267  and  _268
REMARK  102  A    between atoms: _267  and  _270
REMARK  103  A    between atoms: _270  and  _271
REMARK  104  A    between atoms: _276  and  _278
REMARK  105  A    between atoms: _278  and  _279
REMARK  106  A    between atoms: _281  and  _283
REMARK  107  A    between atoms: _283  and  _284
REMARK  108  A    between atoms: _287  and  _289
REMARK  109  A    between atoms: _289  and  _290
REMARK  110  A    between atoms: _293  and  _295
REMARK  111  A    between atoms: _295  and  _296
REMARK  112  A    between atoms: _295  and  _298
REMARK  113  A    between atoms: _298  and  _299
REMARK  114  A    between atoms: _309  and  _311
REMARK  115  A    between atoms: _311  and  _312
REMARK  116  A    between atoms: _311  and  _314
REMARK  117  A    between atoms: _314  and  _315
REMARK  118  A    between atoms: _317  and  _319
REMARK  119  A    between atoms: _319  and  _320
REMARK  120  A    between atoms: _319  and  _322
REMARK  121  A    between atoms: _322  and  _323
REMARK  122  A    between atoms: _328  and  _330
REMARK  123  A    between atoms: _330  and  _331
REMARK  124  A    between atoms: _330  and  _333
REMARK  125  A    between atoms: _333  and  _334
REMARK  126  A    between atoms: _340  and  _342
REMARK  127  A    between atoms: _342  and  _343
REMARK  128  A    between atoms: _342  and  _345
REMARK  129  A    between atoms: _345  and  _346
REMARK  130  A    between atoms: _346  and  _347
REMARK  131  A    between atoms: _350  and  _352
REMARK  132  A    between atoms: _352  and  _353
REMARK  133  A    between atoms: _352  and  _355
REMARK  134  A    between atoms: _355  and  _356
REMARK  135  A    between atoms: _366  and  _368
REMARK  136  A    between atoms: _368  and  _369
REMARK  137  A    between atoms: _368  and  _371
REMARK  138  A    between atoms: _371  and  _372
REMARK  139  A    between atoms: _372  and  _373
REMARK  140  A    between atoms: _376  and  _378
REMARK  141  A    between atoms: _378  and  _379
REMARK  142  A    between atoms: _378  and  _381
REMARK  143  A    between atoms: _381  and  _382
REMARK  144  A    between atoms: _382  and  _383
REMARK  145  A    between atoms: _383  and  _384
REMARK  146  A    between atoms: _384  and  _385
REMARK  147  A    between atoms: _389  and  _391
REMARK  148  A    between atoms: _391  and  _392
REMARK  149  A    between atoms: _391  and  _394
REMARK  150  A    between atoms: _394  and  _395
REMARK                            x       y       z     vdW  Elec       q    Type
REMARK                         _______ _______ _______ _____ _____    ______ ____
ROOT
ATOM      1  O   HOH     1      -5.692  10.035   1.793  0.00  0.00    +0.000 OA
ENDROOT
TORSDOF 0
REMARK  Name = ../refined-set-2016/1w3j/1w3j_pocket.pdb
REMARK  150 active torsions:
REMARK  status: ('A' for Active; 'I' for Inactive)
REMARK    1  A    between atoms: _1  and  _3
REMARK    2  A    between atoms: _3  and  _4
REMARK    3  A    between atoms: _7  and  _9
REMARK    4  A    between atoms: _9  and  _10
REMARK    5  A    between atoms: _9  and  _12
REMARK    6  A    between atoms: _12  and  _13
REMARK    7  A    between atoms: _16  and  _18
REMARK    8  A    between atoms: _18  and  _19
REMARK    9  A    between atoms: _22  and  _24
REMARK   10  A    between atoms: _24  and  _25
REMARK   11  A    between atoms: _24  and  _27
REMARK   12  A    between atoms: _27  and  _28
REMARK   13  A    between atoms: _30  and  _32
REMARK   14  A    between atoms: _32  and  _33
REMARK   15  A    between atoms: _32  and  _35
REMARK   16  A    between atoms: _35  and  _36
REMARK   17  A    between atoms: _41  and  _42
REMARK   18  A    between atoms: _44  and  _46
REMARK   19  A    between atoms: _46  and  _47
REMARK   20  A    between atoms: _46  and  _49
REMARK   21  A    between atoms: _49  and  _50
REMARK   22  A    between atoms: _50  and  _51
REMARK   23  A    between atoms: _56  and  _58
REMARK   24  A    between atoms: _58  and  _59
REMARK   25  A    between atoms: _58  and  _61
REMARK   26  A    between atoms: _61  and  _62
REMARK   27  A    between atoms: _62  and  _63
REMARK   28  A    between atoms: _63  and  _64
REMARK   29  A    between atoms: _73  and  _75
REMARK   30  A    between atoms: _75  and  _76
REMARK   31  A    between atoms: _75  and  _78
REMARK   32  A    between atoms: _78  and  _79
REMARK   33  A    between atoms: _84  and  _86
REMARK   34  A    between atoms: _86  and  _87
REMARK   35  A    between atoms: _86  and  _89
REMARK   36  A    between atoms: _89  and  _90
REMARK   37  A    between atoms: _100  and  _102
REMARK   38  A    between atoms: _102  and  _103
REMARK   39  A    between atoms: _102  and  _105
REMARK   40  A    between atoms: _105  and  _106
REMARK   41  A    between atoms: _111  and  _113
REMARK   42  A    between atoms: _113  and  _114
REMARK   43  A    between atoms: _113  and  _116
REMARK   44  A    between atoms: _116  and  _117
REMARK   45  A    between atoms: _117  and  _118
REMARK   46  A    between atoms: _121  and  _123
REMARK   47  A    between atoms: _123  and  _124
REMARK   48  A    between atoms: _123  and  _126
REMARK   49  A    between atoms: _129  and  _131
REMARK   50  A    between atoms: _131  and  _132
REMARK   51  A    between atoms: _131  and  _134
REMARK   52  A    between atoms: _134  and  _135
REMARK   53  A    between atoms: _140  and  _142
REMARK   54  A    between atoms: _142  and  _143
REMARK   55  A    between atoms: _142  and  _145
REMARK   56  A    between atoms: _148  and  _150
REMARK   57  A    between atoms: _150  and  _151
REMARK   58  A    between atoms: _150  and  _153
REMARK   59  A    between atoms: _153  and  _154
REMARK   60  A    between atoms: _160  and  _162
REMARK   61  A    between atoms: _162  and  _163
REMARK   62  A    between atoms: _162  and  _165
REMARK   63  A    between atoms: _165  and  _166
REMARK   64  A    between atoms: _171  and  _173
REMARK   65  A    between atoms: _173  and  _174
REMARK   66  A    between atoms: _173  and  _176
REMARK   67  A    between atoms: _176  and  _177
REMARK   68  A    between atoms: _182  and  _184
REMARK   69  A    between atoms: _184  and  _185
REMARK   70  A    between atoms: _184  and  _187
REMARK   71  A    between atoms: _187  and  _188
REMARK   72  A    between atoms: _193  and  _195
REMARK   73  A    between atoms: _195  and  _196
REMARK   74  A    between atoms: _195  and  _198
REMARK   75  A    between atoms: _198  and  _199
REMARK   76  A    between atoms: _204  and  _205
REMARK   77  A    between atoms: _207  and  _209
REMARK   78  A    between atoms: _209  and  _210
REMARK   79  A    between atoms: _209  and  _212
REMARK   80  A    between atoms: _212  and  _213
REMARK   81  A    between atoms: _218  and  _219
REMARK   82  A    between atoms: _221  and  _223
REMARK   83  A    between atoms: _223  and  _224
REMARK   84  A    between atoms: _223  and  _226
REMARK   85  A    between atoms: _226  and  _227
REMARK   86  A    between atoms: _227  and  _228
REMARK   87  A    between atoms: _230  and  _232
REMARK   88  A    between atoms: _232  and  _233
REMARK   89  A    between atoms: _232  and  _235
REMARK   90  A    between atoms: _235  and  _236
REMARK   91  A    between atoms: _246  and  _248
REMARK   92  A    between atoms: _248  and  _249
REMARK   93  A    between atoms: _248  and  _251
REMARK   94  A    between atoms: _251  and  _252
REMARK   95  A    between atoms: _255  and  _257
REMARK   96  A    between atoms: _257  and  _258
REMARK   97  A    between atoms: _257  and  _260
REMARK   98  A    between atoms: _260  and  _261
REMARK   99  A    between atoms: _261  and  _262
REMARK  100  A    between atoms: _265  and  _267
REMARK  101  A    between atoms: _267  and  _268
REMARK  102  A    between atoms: _267  and  _270
REMARK  103  A    between atoms: _270  and  _271
REMARK  104  A    between atoms: _276  and  _278
REMARK  105  A    between atoms: _278  and  _279
REMARK  106  A    between atoms: _281  and  _283
REMARK  107  A    between atoms: _283  and  _284
REMARK  108  A    between atoms: _287  and  _289
REMARK  109  A    between atoms: _289  and  _290
REMARK  110  A    between atoms: _293  and  _295
REMARK  111  A    between atoms: _295  and  _296
REMARK  112  A    between atoms: _295  and  _298
REMARK  113  A    between atoms: _298  and  _299
REMARK  114  A    between atoms: _309  and  _311
REMARK  115  A    between atoms: _311  and  _312
REMARK  116  A    between atoms: _311  and  _314
REMARK  117  A    between atoms: _314  and  _315
REMARK  118  A    between atoms: _317  and  _319
REMARK  119  A    between atoms: _319  and  _320
REMARK  120  A    between atoms: _319  and  _322
REMARK  121  A    between atoms: _322  and  _323
REMARK  122  A    between atoms: _328  and  _330
REMARK  123  A    between atoms: _330  and  _331
REMARK  124  A    between atoms: _330  and  _333
REMARK  125  A    between atoms: _333  and  _334
REMARK  126  A    between atoms: _340  and  _342
REMARK  127  A    between atoms: _342  and  _343
REMARK  128  A    between atoms: _342  and  _345
REMARK  129  A    between atoms: _345  and  _346
REMARK  130  A    between atoms: _346  and  _347
REMARK  131  A    between atoms: _350  and  _352
REMARK  132  A    between atoms: _352  and  _353
REMARK  133  A    between atoms: _352  and  _355
REMARK  134  A    between atoms: _355  and  _356
REMARK  135  A    between atoms: _366  and  _368
REMARK  136  A    between atoms: _368  and  _369
REMARK  137  A    between atoms: _368  and  _371
REMARK  138  A    between atoms: _371  and  _372
REMARK  139  A    between atoms: _372  and  _373
REMARK  140  A    between atoms: _376  and  _378
REMARK  141  A    between atoms: _378  and  _379
REMARK  142  A    between atoms: _378  and  _381
REMARK  143  A    between atoms: _381  and  _382
REMARK  144  A    between atoms: _382  and  _383
REMARK  145  A    between atoms: _383  and  _384
REMARK  146  A    between atoms: _384  and  _385
REMARK  147  A    between atoms: _389  and  _391
REMARK  148  A    between atoms: _391  and  _392
REMARK  149  A    between atoms: _391  and  _394
REMARK  150  A    between atoms: _394  and  _395
REMARK                            x       y       z     vdW  Elec       q    Type
REMARK                         _______ _______ _______ _____ _____    ______ ____
ROOT
ATOM      1  O   HOH     1      -1.696   8.235  12.268  0.00  0.00    +0.000 OA
ENDROOT
TORSDOF 0
