REMARK  Name = ../refined-set-2016/3nu5/3nu5_pocket.pdb
REMARK  239 active torsions:
REMARK  status: ('A' for Active; 'I' for Inactive)
REMARK    1  A    between atoms: _1  and  _3
REMARK    2  A    between atoms: _3  and  _4
REMARK    3  A    between atoms: _3  and  _6
REMARK    4  A    between atoms: _6  and  _7
REMARK    5  A    between atoms: _7  and  _8
REMARK    6  A    between atoms: _8  and  _9
REMARK    7  A    between atoms: _18  and  _20
REMARK    8  A    between atoms: _20  and  _21
REMARK    9  A    between atoms: _20  and  _23
REMARK   10  A    between atoms: _23  and  _24
REMARK   11  A    between atoms: _27  and  _29
REMARK   12  A    between atoms: _29  and  _30
REMARK   13  A    between atoms: _29  and  _32
REMARK   14  A    between atoms: _32  and  _33
REMARK   15  A    between atoms: _36  and  _38
REMARK   16  A    between atoms: _38  and  _39
REMARK   17  A    between atoms: _38  and  _41
REMARK   18  A    between atoms: _41  and  _42
REMARK   19  A    between atoms: _45  and  _47
REMARK   20  A    between atoms: _47  and  _48
REMARK   21  A    between atoms: _47  and  _50
REMARK   22  A    between atoms: _50  and  _51
REMARK   23  A    between atoms: _54  and  _56
REMARK   24  A    between atoms: _56  and  _57
REMARK   25  A    between atoms: _59  and  _61
REMARK   26  A    between atoms: _61  and  _62
REMARK   27  A    between atoms: _65  and  _67
REMARK   28  A    between atoms: _67  and  _68
REMARK   29  A    between atoms: _67  and  _70
REMARK   30  A    between atoms: _70  and  _71
REMARK   31  A    between atoms: _74  and  _76
REMARK   32  A    between atoms: _76  and  _77
REMARK   33  A    between atoms: _76  and  _79
REMARK   34  A    between atoms: _79  and  _80
REMARK   35  A    between atoms: _83  and  _85
REMARK   36  A    between atoms: _85  and  _86
REMARK   37  A    between atoms: _85  and  _88
REMARK   38  A    between atoms: _88  and  _89
REMARK   39  A    between atoms: _92  and  _94
REMARK   40  A    between atoms: _94  and  _95
REMARK   41  A    between atoms: _94  and  _97
REMARK   42  A    between atoms: _100  and  _102
REMARK   43  A    between atoms: _102  and  _103
REMARK   44  A    between atoms: _102  and  _105
REMARK   45  A    between atoms: _105  and  _106
REMARK   46  A    between atoms: _109  and  _111
REMARK   47  A    between atoms: _111  and  _112
REMARK   48  A    between atoms: _111  and  _114
REMARK   49  A    between atoms: _114  and  _115
REMARK   50  A    between atoms: _115  and  _116
REMARK   51  A    between atoms: _116  and  _117
REMARK   52  A    between atoms: _117  and  _118
REMARK   53  A    between atoms: _122  and  _124
REMARK   54  A    between atoms: _124  and  _125
REMARK   55  A    between atoms: _124  and  _127
REMARK   56  A    between atoms: _127  and  _128
REMARK   57  A    between atoms: _128  and  _129
REMARK   58  A    between atoms: _131  and  _133
REMARK   59  A    between atoms: _133  and  _134
REMARK   60  A    between atoms: _133  and  _136
REMARK   61  A    between atoms: _136  and  _137
REMARK   62  A    between atoms: _140  and  _142
REMARK   63  A    between atoms: _142  and  _143
REMARK   64  A    between atoms: _145  and  _147
REMARK   65  A    between atoms: _147  and  _148
REMARK   66  A    between atoms: _150  and  _152
REMARK   67  A    between atoms: _152  and  _153
REMARK   68  A    between atoms: _152  and  _155
REMARK   69  A    between atoms: _158  and  _160
REMARK   70  A    between atoms: _160  and  _161
REMARK   71  A    between atoms: _163  and  _165
REMARK   72  A    between atoms: _165  and  _166
REMARK   73  A    between atoms: _168  and  _170
REMARK   74  A    between atoms: _170  and  _171
REMARK   75  A    between atoms: _170  and  _173
REMARK   76  A    between atoms: _173  and  _174
REMARK   77  A    between atoms: _180  and  _182
REMARK   78  A    between atoms: _182  and  _183
REMARK   79  A    between atoms: _182  and  _185
REMARK   80  A    between atoms: _185  and  _186
REMARK   81  A    between atoms: _189  and  _191
REMARK   82  A    between atoms: _191  and  _192
REMARK   83  A    between atoms: _191  and  _194
REMARK   84  A    between atoms: _197  and  _199
REMARK   85  A    between atoms: _199  and  _200
REMARK   86  A    between atoms: _199  and  _202
REMARK   87  A    between atoms: _202  and  _203
REMARK   88  A    between atoms: _207  and  _208
REMARK   89  A    between atoms: _213  and  _215
REMARK   90  A    between atoms: _215  and  _216
REMARK   91  A    between atoms: _215  and  _218
REMARK   92  A    between atoms: _218  and  _219
REMARK   93  A    between atoms: _223  and  _224
REMARK   94  A    between atoms: _229  and  _231
REMARK   95  A    between atoms: _231  and  _232
REMARK   96  A    between atoms: _231  and  _234
REMARK   97  A    between atoms: _237  and  _239
REMARK   98  A    between atoms: _239  and  _240
REMARK   99  A    between atoms: _239  and  _242
REMARK  100  A    between atoms: _242  and  _243
REMARK  101  A    between atoms: _248  and  _250
REMARK  102  A    between atoms: _250  and  _251
REMARK  103  A    between atoms: _250  and  _253
REMARK  104  A    between atoms: _253  and  _254
REMARK  105  A    between atoms: _257  and  _259
REMARK  106  A    between atoms: _259  and  _260
REMARK  107  A    between atoms: _259  and  _262
REMARK  108  A    between atoms: _262  and  _263
REMARK  109  A    between atoms: _266  and  _268
REMARK  110  A    between atoms: _268  and  _269
REMARK  111  A    between atoms: _271  and  _273
REMARK  112  A    between atoms: _273  and  _274
REMARK  113  A    between atoms: _273  and  _276
REMARK  114  A    between atoms: _276  and  _277
REMARK  115  A    between atoms: _277  and  _278
REMARK  116  A    between atoms: _278  and  _279
REMARK  117  A    between atoms: _288  and  _290
REMARK  118  A    between atoms: _290  and  _291
REMARK  119  A    between atoms: _290  and  _293
REMARK  120  A    between atoms: _293  and  _294
REMARK  121  A    between atoms: _299  and  _301
REMARK  122  A    between atoms: _301  and  _302
REMARK  123  A    between atoms: _301  and  _304
REMARK  124  A    between atoms: _304  and  _305
REMARK  125  A    between atoms: _305  and  _306
REMARK  126  A    between atoms: _306  and  _307
REMARK  127  A    between atoms: _316  and  _318
REMARK  128  A    between atoms: _318  and  _319
REMARK  129  A    between atoms: _318  and  _321
REMARK  130  A    between atoms: _321  and  _322
REMARK  131  A    between atoms: _325  and  _327
REMARK  132  A    between atoms: _327  and  _328
REMARK  133  A    between atoms: _327  and  _330
REMARK  134  A    between atoms: _330  and  _331
REMARK  135  A    between atoms: _334  and  _336
REMARK  136  A    between atoms: _336  and  _337
REMARK  137  A    between atoms: _336  and  _339
REMARK  138  A    between atoms: _339  and  _340
REMARK  139  A    between atoms: _343  and  _345
REMARK  140  A    between atoms: _345  and  _346
REMARK  141  A    between atoms: _345  and  _348
REMARK  142  A    between atoms: _348  and  _349
REMARK  143  A    between atoms: _352  and  _354
REMARK  144  A    between atoms: _354  and  _355
REMARK  145  A    between atoms: _357  and  _359
REMARK  146  A    between atoms: _359  and  _360
REMARK  147  A    between atoms: _363  and  _365
REMARK  148  A    between atoms: _365  and  _366
REMARK  149  A    between atoms: _365  and  _368
REMARK  150  A    between atoms: _368  and  _369
REMARK  151  A    between atoms: _372  and  _374
REMARK  152  A    between atoms: _374  and  _375
REMARK  153  A    between atoms: _374  and  _377
REMARK  154  A    between atoms: _377  and  _378
REMARK  155  A    between atoms: _381  and  _383
REMARK  156  A    between atoms: _383  and  _384
REMARK  157  A    between atoms: _383  and  _386
REMARK  158  A    between atoms: _386  and  _387
REMARK  159  A    between atoms: _390  and  _392
REMARK  160  A    between atoms: _392  and  _393
REMARK  161  A    between atoms: _392  and  _395
REMARK  162  A    between atoms: _398  and  _400
REMARK  163  A    between atoms: _400  and  _401
REMARK  164  A    between atoms: _400  and  _403
REMARK  165  A    between atoms: _403  and  _404
REMARK  166  A    between atoms: _407  and  _409
REMARK  167  A    between atoms: _409  and  _410
REMARK  168  A    between atoms: _409  and  _412
REMARK  169  A    between atoms: _412  and  _413
REMARK  170  A    between atoms: _413  and  _414
REMARK  171  A    between atoms: _414  and  _415
REMARK  172  A    between atoms: _415  and  _416
REMARK  173  A    between atoms: _420  and  _422
REMARK  174  A    between atoms: _422  and  _423
REMARK  175  A    between atoms: _422  and  _425
REMARK  176  A    between atoms: _425  and  _426
REMARK  177  A    between atoms: _426  and  _427
REMARK  178  A    between atoms: _429  and  _431
REMARK  179  A    between atoms: _431  and  _432
REMARK  180  A    between atoms: _431  and  _434
REMARK  181  A    between atoms: _434  and  _435
REMARK  182  A    between atoms: _438  and  _440
REMARK  183  A    between atoms: _440  and  _441
REMARK  184  A    between atoms: _443  and  _445
REMARK  185  A    between atoms: _445  and  _446
REMARK  186  A    between atoms: _448  and  _450
REMARK  187  A    between atoms: _450  and  _451
REMARK  188  A    between atoms: _450  and  _453
REMARK  189  A    between atoms: _456  and  _458
REMARK  190  A    between atoms: _458  and  _459
REMARK  191  A    between atoms: _461  and  _463
REMARK  192  A    between atoms: _463  and  _464
REMARK  193  A    between atoms: _466  and  _468
REMARK  194  A    between atoms: _468  and  _469
REMARK  195  A    between atoms: _468  and  _471
REMARK  196  A    between atoms: _471  and  _472
REMARK  197  A    between atoms: _478  and  _480
REMARK  198  A    between atoms: _480  and  _481
REMARK  199  A    between atoms: _480  and  _483
REMARK  200  A    between atoms: _483  and  _484
REMARK  201  A    between atoms: _487  and  _489
REMARK  202  A    between atoms: _489  and  _490
REMARK  203  A    between atoms: _489  and  _492
REMARK  204  A    between atoms: _495  and  _497
REMARK  205  A    between atoms: _497  and  _498
REMARK  206  A    between atoms: _497  and  _500
REMARK  207  A    between atoms: _500  and  _501
REMARK  208  A    between atoms: _504  and  _506
REMARK  209  A    between atoms: _506  and  _507
REMARK  210  A    between atoms: _506  and  _509
REMARK  211  A    between atoms: _509  and  _510
REMARK  212  A    between atoms: _514  and  _515
REMARK  213  A    between atoms: _520  and  _522
REMARK  214  A    between atoms: _522  and  _523
REMARK  215  A    between atoms: _522  and  _525
REMARK  216  A    between atoms: _528  and  _530
REMARK  217  A    between atoms: _530  and  _531
REMARK  218  A    between atoms: _530  and  _533
REMARK  219  A    between atoms: _533  and  _534
REMARK  220  A    between atoms: _539  and  _541
REMARK  221  A    between atoms: _541  and  _542
REMARK  222  A    between atoms: _541  and  _544
REMARK  223  A    between atoms: _544  and  _545
REMARK  224  A    between atoms: _548  and  _550
REMARK  225  A    between atoms: _550  and  _551
REMARK  226  A    between atoms: _550  and  _553
REMARK  227  A    between atoms: _553  and  _554
REMARK  228  A    between atoms: _557  and  _559
REMARK  229  A    between atoms: _559  and  _560
REMARK  230  A    between atoms: _562  and  _564
REMARK  231  A    between atoms: _564  and  _565
REMARK  232  A    between atoms: _564  and  _567
REMARK  233  A    between atoms: _567  and  _568
REMARK  234  A    between atoms: _568  and  _569
REMARK  235  A    between atoms: _569  and  _570
REMARK  236  A    between atoms: _579  and  _581
REMARK  237  A    between atoms: _581  and  _582
REMARK  238  A    between atoms: _581  and  _584
REMARK  239  A    between atoms: _584  and  _585
REMARK                            x       y       z     vdW  Elec       q    Type
REMARK                         _______ _______ _______ _____ _____    ______ ____
ROOT
ATOM      1  NE  ARG A   1       6.605  20.685  15.230  0.00  0.00    -0.265 N 
ATOM      2  HE  ARG A   1       6.517  20.301  16.193  0.00  0.00    +0.259 HD
ATOM      3  CZ  ARG A   1       7.499  20.161  14.370  0.00  0.00    +0.342 C 
ATOM      4  NH2 ARG A   1       8.225  19.157  14.812  0.00  0.00    -0.292 N 
ATOM      5 HH21 ARG A   1       8.093  18.807  15.782  0.00  0.00    +0.255 HD
ATOM      6 HH22 ARG A   1       8.931  18.713  14.191  0.00  0.00    +0.255 HD
ATOM      7  NH1 ARG A   1       7.669  20.620  13.125  0.00  0.00    -0.292 N 
ATOM      8 HH11 ARG A   1       7.096  21.417  12.782  0.00  0.00    +0.255 HD
ATOM      9 HH12 ARG A   1       8.374  20.179  12.500  0.00  0.00    +0.255 HD
ENDROOT
BRANCH   1  10
ATOM     10  CD  ARG A   1       5.760  21.796  14.801  0.00  0.00    +0.174 C 
BRANCH  10  11
ATOM     11  CG  ARG A   1       5.110  22.481  15.989  0.00  0.00    +0.045 C 
BRANCH  11  12
ATOM     12  CB  ARG A   1       4.477  23.786  15.573  0.00  0.00    +0.029 C 
BRANCH  12  13
ATOM     13  CA  ARG A   1       3.850  24.599  16.703  0.00  0.00    +0.133 C 
BRANCH  13  14
ATOM     14  N   ARG A   1       2.660  23.923  17.195  0.00  0.00    -0.239 NA
ATOM     15  H   ARG A   1       2.328  23.049  16.740  0.00  0.00    +0.142 HD
ENDBRANCH  13  14
BRANCH  13  16
ATOM     16  C   ARG A   1       3.506  26.009  16.263  0.00  0.00    +0.224 C 
ATOM     17  O   ARG A   1       2.507  26.220  15.584  0.00  0.00    -0.287 OA
ENDBRANCH  13  16
ENDBRANCH  12  13
ENDBRANCH  11  12
ENDBRANCH  10  11
ENDBRANCH   1  10
TORSDOF 6
REMARK  Name = ../refined-set-2016/3nu5/3nu5_pocket.pdb
REMARK  239 active torsions:
REMARK  status: ('A' for Active; 'I' for Inactive)
REMARK    1  A    between atoms: _1  and  _3
REMARK    2  A    between atoms: _3  and  _4
REMARK    3  A    between atoms: _3  and  _6
REMARK    4  A    between atoms: _6  and  _7
REMARK    5  A    between atoms: _7  and  _8
REMARK    6  A    between atoms: _8  and  _9
REMARK    7  A    between atoms: _18  and  _20
REMARK    8  A    between atoms: _20  and  _21
REMARK    9  A    between atoms: _20  and  _23
REMARK   10  A    between atoms: _23  and  _24
REMARK   11  A    between atoms: _27  and  _29
REMARK   12  A    between atoms: _29  and  _30
REMARK   13  A    between atoms: _29  and  _32
REMARK   14  A    between atoms: _32  and  _33
REMARK   15  A    between atoms: _36  and  _38
REMARK   16  A    between atoms: _38  and  _39
REMARK   17  A    between atoms: _38  and  _41
REMARK   18  A    between atoms: _41  and  _42
REMARK   19  A    between atoms: _45  and  _47
REMARK   20  A    between atoms: _47  and  _48
REMARK   21  A    between atoms: _47  and  _50
REMARK   22  A    between atoms: _50  and  _51
REMARK   23  A    between atoms: _54  and  _56
REMARK   24  A    between atoms: _56  and  _57
REMARK   25  A    between atoms: _59  and  _61
REMARK   26  A    between atoms: _61  and  _62
REMARK   27  A    between atoms: _65  and  _67
REMARK   28  A    between atoms: _67  and  _68
REMARK   29  A    between atoms: _67  and  _70
REMARK   30  A    between atoms: _70  and  _71
REMARK   31  A    between atoms: _74  and  _76
REMARK   32  A    between atoms: _76  and  _77
REMARK   33  A    between atoms: _76  and  _79
REMARK   34  A    between atoms: _79  and  _80
REMARK   35  A    between atoms: _83  and  _85
REMARK   36  A    between atoms: _85  and  _86
REMARK   37  A    between atoms: _85  and  _88
REMARK   38  A    between atoms: _88  and  _89
REMARK   39  A    between atoms: _92  and  _94
REMARK   40  A    between atoms: _94  and  _95
REMARK   41  A    between atoms: _94  and  _97
REMARK   42  A    between atoms: _100  and  _102
REMARK   43  A    between atoms: _102  and  _103
REMARK   44  A    between atoms: _102  and  _105
REMARK   45  A    between atoms: _105  and  _106
REMARK   46  A    between atoms: _109  and  _111
REMARK   47  A    between atoms: _111  and  _112
REMARK   48  A    between atoms: _111  and  _114
REMARK   49  A    between atoms: _114  and  _115
REMARK   50  A    between atoms: _115  and  _116
REMARK   51  A    between atoms: _116  and  _117
REMARK   52  A    between atoms: _117  and  _118
REMARK   53  A    between atoms: _122  and  _124
REMARK   54  A    between atoms: _124  and  _125
REMARK   55  A    between atoms: _124  and  _127
REMARK   56  A    between atoms: _127  and  _128
REMARK   57  A    between atoms: _128  and  _129
REMARK   58  A    between atoms: _131  and  _133
REMARK   59  A    between atoms: _133  and  _134
REMARK   60  A    between atoms: _133  and  _136
REMARK   61  A    between atoms: _136  and  _137
REMARK   62  A    between atoms: _140  and  _142
REMARK   63  A    between atoms: _142  and  _143
REMARK   64  A    between atoms: _145  and  _147
REMARK   65  A    between atoms: _147  and  _148
REMARK   66  A    between atoms: _150  and  _152
REMARK   67  A    between atoms: _152  and  _153
REMARK   68  A    between atoms: _152  and  _155
REMARK   69  A    between atoms: _158  and  _160
REMARK   70  A    between atoms: _160  and  _161
REMARK   71  A    between atoms: _163  and  _165
REMARK   72  A    between atoms: _165  and  _166
REMARK   73  A    between atoms: _168  and  _170
REMARK   74  A    between atoms: _170  and  _171
REMARK   75  A    between atoms: _170  and  _173
REMARK   76  A    between atoms: _173  and  _174
REMARK   77  A    between atoms: _180  and  _182
REMARK   78  A    between atoms: _182  and  _183
REMARK   79  A    between atoms: _182  and  _185
REMARK   80  A    between atoms: _185  and  _186
REMARK   81  A    between atoms: _189  and  _191
REMARK   82  A    between atoms: _191  and  _192
REMARK   83  A    between atoms: _191  and  _194
REMARK   84  A    between atoms: _197  and  _199
REMARK   85  A    between atoms: _199  and  _200
REMARK   86  A    between atoms: _199  and  _202
REMARK   87  A    between atoms: _202  and  _203
REMARK   88  A    between atoms: _207  and  _208
REMARK   89  A    between atoms: _213  and  _215
REMARK   90  A    between atoms: _215  and  _216
REMARK   91  A    between atoms: _215  and  _218
REMARK   92  A    between atoms: _218  and  _219
REMARK   93  A    between atoms: _223  and  _224
REMARK   94  A    between atoms: _229  and  _231
REMARK   95  A    between atoms: _231  and  _232
REMARK   96  A    between atoms: _231  and  _234
REMARK   97  A    between atoms: _237  and  _239
REMARK   98  A    between atoms: _239  and  _240
REMARK   99  A    between atoms: _239  and  _242
REMARK  100  A    between atoms: _242  and  _243
REMARK  101  A    between atoms: _248  and  _250
REMARK  102  A    between atoms: _250  and  _251
REMARK  103  A    between atoms: _250  and  _253
REMARK  104  A    between atoms: _253  and  _254
REMARK  105  A    between atoms: _257  and  _259
REMARK  106  A    between atoms: _259  and  _260
REMARK  107  A    between atoms: _259  and  _262
REMARK  108  A    between atoms: _262  and  _263
REMARK  109  A    between atoms: _266  and  _268
REMARK  110  A    between atoms: _268  and  _269
REMARK  111  A    between atoms: _271  and  _273
REMARK  112  A    between atoms: _273  and  _274
REMARK  113  A    between atoms: _273  and  _276
REMARK  114  A    between atoms: _276  and  _277
REMARK  115  A    between atoms: _277  and  _278
REMARK  116  A    between atoms: _278  and  _279
REMARK  117  A    between atoms: _288  and  _290
REMARK  118  A    between atoms: _290  and  _291
REMARK  119  A    between atoms: _290  and  _293
REMARK  120  A    between atoms: _293  and  _294
REMARK  121  A    between atoms: _299  and  _301
REMARK  122  A    between atoms: _301  and  _302
REMARK  123  A    between atoms: _301  and  _304
REMARK  124  A    between atoms: _304  and  _305
REMARK  125  A    between atoms: _305  and  _306
REMARK  126  A    between atoms: _306  and  _307
REMARK  127  A    between atoms: _316  and  _318
REMARK  128  A    between atoms: _318  and  _319
REMARK  129  A    between atoms: _318  and  _321
REMARK  130  A    between atoms: _321  and  _322
REMARK  131  A    between atoms: _325  and  _327
REMARK  132  A    between atoms: _327  and  _328
REMARK  133  A    between atoms: _327  and  _330
REMARK  134  A    between atoms: _330  and  _331
REMARK  135  A    between atoms: _334  and  _336
REMARK  136  A    between atoms: _336  and  _337
REMARK  137  A    between atoms: _336  and  _339
REMARK  138  A    between atoms: _339  and  _340
REMARK  139  A    between atoms: _343  and  _345
REMARK  140  A    between atoms: _345  and  _346
REMARK  141  A    between atoms: _345  and  _348
REMARK  142  A    between atoms: _348  and  _349
REMARK  143  A    between atoms: _352  and  _354
REMARK  144  A    between atoms: _354  and  _355
REMARK  145  A    between atoms: _357  and  _359
REMARK  146  A    between atoms: _359  and  _360
REMARK  147  A    between atoms: _363  and  _365
REMARK  148  A    between atoms: _365  and  _366
REMARK  149  A    between atoms: _365  and  _368
REMARK  150  A    between atoms: _368  and  _369
REMARK  151  A    between atoms: _372  and  _374
REMARK  152  A    between atoms: _374  and  _375
REMARK  153  A    between atoms: _374  and  _377
REMARK  154  A    between atoms: _377  and  _378
REMARK  155  A    between atoms: _381  and  _383
REMARK  156  A    between atoms: _383  and  _384
REMARK  157  A    between atoms: _383  and  _386
REMARK  158  A    between atoms: _386  and  _387
REMARK  159  A    between atoms: _390  and  _392
REMARK  160  A    between atoms: _392  and  _393
REMARK  161  A    between atoms: _392  and  _395
REMARK  162  A    between atoms: _398  and  _400
REMARK  163  A    between atoms: _400  and  _401
REMARK  164  A    between atoms: _400  and  _403
REMARK  165  A    between atoms: _403  and  _404
REMARK  166  A    between atoms: _407  and  _409
REMARK  167  A    between atoms: _409  and  _410
REMARK  168  A    between atoms: _409  and  _412
REMARK  169  A    between atoms: _412  and  _413
REMARK  170  A    between atoms: _413  and  _414
REMARK  171  A    between atoms: _414  and  _415
REMARK  172  A    between atoms: _415  and  _416
REMARK  173  A    between atoms: _420  and  _422
REMARK  174  A    between atoms: _422  and  _423
REMARK  175  A    between atoms: _422  and  _425
REMARK  176  A    between atoms: _425  and  _426
REMARK  177  A    between atoms: _426  and  _427
REMARK  178  A    between atoms: _429  and  _431
REMARK  179  A    between atoms: _431  and  _432
REMARK  180  A    between atoms: _431  and  _434
REMARK  181  A    between atoms: _434  and  _435
REMARK  182  A    between atoms: _438  and  _440
REMARK  183  A    between atoms: _440  and  _441
REMARK  184  A    between atoms: _443  and  _445
REMARK  185  A    between atoms: _445  and  _446
REMARK  186  A    between atoms: _448  and  _450
REMARK  187  A    between atoms: _450  and  _451
REMARK  188  A    between atoms: _450  and  _453
REMARK  189  A    between atoms: _456  and  _458
REMARK  190  A    between atoms: _458  and  _459
REMARK  191  A    between atoms: _461  and  _463
REMARK  192  A    between atoms: _463  and  _464
REMARK  193  A    between atoms: _466  and  _468
REMARK  194  A    between atoms: _468  and  _469
REMARK  195  A    between atoms: _468  and  _471
REMARK  196  A    between atoms: _471  and  _472
REMARK  197  A    between atoms: _478  and  _480
REMARK  198  A    between atoms: _480  and  _481
REMARK  199  A    between atoms: _480  and  _483
REMARK  200  A    between atoms: _483  and  _484
REMARK  201  A    between atoms: _487  and  _489
REMARK  202  A    between atoms: _489  and  _490
REMARK  203  A    between atoms: _489  and  _492
REMARK  204  A    between atoms: _495  and  _497
REMARK  205  A    between atoms: _497  and  _498
REMARK  206  A    between atoms: _497  and  _500
REMARK  207  A    between atoms: _500  and  _501
REMARK  208  A    between atoms: _504  and  _506
REMARK  209  A    between atoms: _506  and  _507
REMARK  210  A    between atoms: _506  and  _509
REMARK  211  A    between atoms: _509  and  _510
REMARK  212  A    between atoms: _514  and  _515
REMARK  213  A    between atoms: _520  and  _522
REMARK  214  A    between atoms: _522  and  _523
REMARK  215  A    between atoms: _522  and  _525
REMARK  216  A    between atoms: _528  and  _530
REMARK  217  A    between atoms: _530  and  _531
REMARK  218  A    between atoms: _530  and  _533
REMARK  219  A    between atoms: _533  and  _534
REMARK  220  A    between atoms: _539  and  _541
REMARK  221  A    between atoms: _541  and  _542
REMARK  222  A    between atoms: _541  and  _544
REMARK  223  A    between atoms: _544  and  _545
REMARK  224  A    between atoms: _548  and  _550
REMARK  225  A    between atoms: _550  and  _551
REMARK  226  A    between atoms: _550  and  _553
REMARK  227  A    between atoms: _553  and  _554
REMARK  228  A    between atoms: _557  and  _559
REMARK  229  A    between atoms: _559  and  _560
REMARK  230  A    between atoms: _562  and  _564
REMARK  231  A    between atoms: _564  and  _565
REMARK  232  A    between atoms: _564  and  _567
REMARK  233  A    between atoms: _567  and  _568
REMARK  234  A    between atoms: _568  and  _569
REMARK  235  A    between atoms: _569  and  _570
REMARK  236  A    between atoms: _579  and  _581
REMARK  237  A    between atoms: _581  and  _582
REMARK  238  A    between atoms: _581  and  _584
REMARK  239  A    between atoms: _584  and  _585
REMARK                            x       y       z     vdW  Elec       q    Type
REMARK                         _______ _______ _______ _____ _____    ______ ____
ROOT
ATOM      1  C   ALA A   6      18.152  30.369  17.400  0.00  0.00    +0.241 C 
ATOM      2  N   ASP A   7      19.495  30.392  17.427  0.00  0.00    -0.297 N 
ATOM      3  H   ASP A   7      20.023  29.498  17.475  0.00  0.00    +0.150 HD
ATOM      4  O   ALA A   6      17.533  31.398  17.392  0.00  0.00    -0.273 OA
ENDROOT
BRANCH   1   5
ATOM      5  CA  ALA A   6      17.449  29.025  17.375  0.00  0.00    +0.149 C 
ATOM      6  CB  ALA A   6      16.644  28.892  16.077  0.00  0.00    +0.031 C 
BRANCH   5   9
ATOM      7  C   GLY A   5      16.848  28.228  19.648  0.00  0.00    +0.243 C 
ATOM      8  O   GLY A   5      17.939  27.680  19.807  0.00  0.00    -0.273 OA
ATOM      9  N   ALA A   6      16.563  28.875  18.540  0.00  0.00    -0.297 N 
ATOM     10  H   ALA A   6      15.626  29.322  18.481  0.00  0.00    +0.150 HD
BRANCH   7  11
ATOM     11  CA  GLY A   5      15.820  28.162  20.747  0.00  0.00    +0.176 C 
BRANCH  11  14
ATOM     12  C   THR A   4      14.591  30.270  20.843  0.00  0.00    +0.243 C 
ATOM     13  O   THR A   4      15.509  30.888  21.359  0.00  0.00    -0.273 OA
ATOM     14  N   GLY A   5      14.650  29.003  20.519  0.00  0.00    -0.295 N 
ATOM     15  H   GLY A   5      13.815  28.571  20.074  0.00  0.00    +0.150 HD
BRANCH  12  16
ATOM     16  CA  THR A   4      13.330  31.054  20.490  0.00  0.00    +0.176 C 
BRANCH  16  18
ATOM     17  C   ASP A   3      12.930  30.196  18.251  0.00  0.00    +0.241 C 
ATOM     18  N   THR A   4      12.515  30.352  19.528  0.00  0.00    -0.295 N 
ATOM     19  H   THR A   4      11.597  29.961  19.821  0.00  0.00    +0.150 HD
ATOM     20  O   ASP A   3      13.987  30.612  17.854  0.00  0.00    -0.273 OA
BRANCH  17  21
ATOM     21  CA  ASP A   3      11.936  29.440  17.357  0.00  0.00    +0.160 C 
BRANCH  21  24
ATOM     22  C   LEU A   2       9.811  30.271  16.506  0.00  0.00    +0.241 C 
ATOM     23  O   LEU A   2       9.141  29.637  17.362  0.00  0.00    -0.273 OA
ATOM     24  N   ASP A   3      11.129  30.302  16.511  0.00  0.00    -0.297 N 
ATOM     25  H   ASP A   3      11.613  30.974  15.881  0.00  0.00    +0.150 HD
BRANCH  22  26
ATOM     26  CA  LEU A   2       9.082  30.945  15.364  0.00  0.00    +0.149 C 
BRANCH  26  28
ATOM     27  C   LEU A   1       9.200  29.260  13.603  0.00  0.00    +0.238 C 
ATOM     28  N   LEU A   2       8.471  29.915  14.504  0.00  0.00    -0.297 N 
ATOM     29  H   LEU A   2       7.459  29.698  14.602  0.00  0.00    +0.150 HD
ATOM     30  O   LEU A   1      10.367  29.563  13.359  0.00  0.00    -0.274 OA
BRANCH  27  31
ATOM     31  CA  LEU A   1       8.559  28.112  12.875  0.00  0.00    +0.145 C 
BRANCH  31  32
ATOM     32  N   LEU A   1       8.695  28.256  11.449  0.00  0.00    -0.238 NA
ATOM     33  H   LEU A   1       9.543  27.846  11.009  0.00  0.00    +0.142 HD
ENDBRANCH  31  32
BRANCH  31  34
ATOM     34  CB  LEU A   1       9.194  26.755  13.209  0.00  0.00    +0.026 C 
BRANCH  34  35
ATOM     35  CG  LEU A   1       9.217  26.221  14.606  0.00  0.00    +0.002 C 
ATOM     36  CD2 LEU A   1       7.842  25.886  15.066  0.00  0.00    +0.000 C 
ATOM     37  CD1 LEU A   1      10.134  25.004  14.578  0.00  0.00    +0.000 C 
ENDBRANCH  34  35
ENDBRANCH  31  34
ENDBRANCH  27  31
ENDBRANCH  26  28
BRANCH  26  38
ATOM     38  CB  LEU A   2       7.998  31.861  15.933  0.00  0.00    +0.029 C 
BRANCH  38  39
ATOM     39  CG  LEU A   2       7.143  32.587  14.885  0.00  0.00    +0.002 C 
ATOM     40  CD2 LEU A   2       6.113  33.413  15.623  0.00  0.00    +0.000 C 
ATOM     41  CD1 LEU A   2       8.026  33.378  13.947  0.00  0.00    +0.000 C 
ENDBRANCH  38  39
ENDBRANCH  26  38
ENDBRANCH  22  26
ENDBRANCH  21  24
BRANCH  21  42
ATOM     42  CB  ASP A   3      12.677  28.492  16.429  0.00  0.00    +0.143 C 
BRANCH  42  43
ATOM     43  CG  ASP A   3      13.338  27.392  17.209  0.00  0.00    +0.367 C 
ATOM     44  OD2 ASP A   3      13.254  27.435  18.467  0.00  0.00    -0.246 OA
ATOM     45  OD1 ASP A   3      13.943  26.520  16.568  0.00  0.00    -0.246 OA
ENDBRANCH  42  43
ENDBRANCH  21  42
ENDBRANCH  17  21
ENDBRANCH  16  18
BRANCH  16  46
ATOM     46  CB  THR A   4      12.543  31.329  21.786  0.00  0.00    +0.137 C 
ATOM     47  CG2 THR A   4      11.327  32.186  21.521  0.00  0.00    +0.034 C 
BRANCH  46  48
ATOM     48  OG1 THR A   4      12.101  30.078  22.353  0.00  0.00    -0.382 OA
ATOM     49  HG1 THR A   4      12.888  29.513  22.557  0.00  0.00    +0.210 HD
ENDBRANCH  46  48
ENDBRANCH  16  46
ENDBRANCH  12  16
ENDBRANCH  11  14
ENDBRANCH   7  11
ENDBRANCH   5   9
ENDBRANCH   1   5
BRANCH   2  50
ATOM     50  CA  ASP A   7      20.215  31.647  17.390  0.00  0.00    +0.160 C 
BRANCH  50  51
ATOM     51  C   ASP A   7      19.965  32.407  16.090  0.00  0.00    +0.241 C 
ATOM     52  O   ASP A   7      19.807  33.641  16.103  0.00  0.00    -0.273 OA
ATOM     53  N   ASP A   8      19.932  31.688  14.985  0.00  0.00    -0.297 N 
ATOM     54  H   ASP A   8      20.033  30.654  15.022  0.00  0.00    +0.150 HD
BRANCH  53  55
ATOM     55  CA  ASP A   8      19.750  32.377  13.703  0.00  0.00    +0.160 C 
BRANCH  55  56
ATOM     56  C   ASP A   8      18.678  31.645  12.881  0.00  0.00    +0.241 C 
ATOM     57  O   ASP A   8      18.244  30.554  13.138  0.00  0.00    -0.273 OA
ATOM     58  N   THR A   9      18.221  32.340  11.890  0.00  0.00    -0.295 N 
ATOM     59  H   THR A   9      18.618  33.292  11.757  0.00  0.00    +0.150 HD
BRANCH  58  60
ATOM     60  CA  THR A   9      17.207  31.912  10.949  0.00  0.00    +0.176 C 
BRANCH  60  61
ATOM     61  C   THR A   9      17.811  30.972   9.912  0.00  0.00    +0.243 C 
ATOM     62  N   VAL A  10      17.138  29.846   9.643  0.00  0.00    -0.297 N 
ATOM     63  H   VAL A  10      16.248  29.659  10.148  0.00  0.00    +0.150 HD
ATOM     64  O   THR A   9      18.875  31.271   9.337  0.00  0.00    -0.273 OA
BRANCH  62  65
ATOM     65  CA  VAL A  10      17.614  28.869   8.661  0.00  0.00    +0.149 C 
BRANCH  65  66
ATOM     66  C   VAL A  10      16.434  28.403   7.836  0.00  0.00    +0.241 C 
ATOM     67  O   VAL A  10      15.385  28.033   8.353  0.00  0.00    -0.273 OA
ATOM     68  N   ILE A  11      16.598  28.512   6.531  0.00  0.00    -0.298 N 
ATOM     69  H   ILE A  11      17.522  28.829   6.175  0.00  0.00    +0.150 HD
BRANCH  68  70
ATOM     70  CA  ILE A  11      15.554  28.212   5.566  0.00  0.00    +0.137 C 
BRANCH  70  71
ATOM     71  CB  ILE A  11      15.256  29.499   4.763  0.00  0.00    +0.026 C 
ATOM     72  CG2 ILE A  11      14.190  29.313   3.688  0.00  0.00    +0.002 C 
BRANCH  71  73
ATOM     73  CG1 ILE A  11      14.887  30.704   5.643  0.00  0.00    +0.002 C 
ATOM     74  CD1 ILE A  11      13.690  30.444   6.493  0.00  0.00    +0.000 C 
ENDBRANCH  71  73
ENDBRANCH  70  71
BRANCH  70  75
ATOM     75  C   ILE A  11      16.018  27.069   4.676  0.00  0.00    +0.227 C 
ATOM     76  O   ILE A  11      17.193  26.949   4.371  0.00  0.00    -0.286 OA
ENDBRANCH  70  75
ENDBRANCH  68  70
ENDBRANCH  65  66
BRANCH  65  77
ATOM     77  CB  VAL A  10      18.394  27.708   9.295  0.00  0.00    +0.027 C 
ATOM     78  CG2 VAL A  10      17.649  26.895  10.280  0.00  0.00    +0.002 C 
ATOM     79  CG1 VAL A  10      18.902  26.789   8.164  0.00  0.00    +0.002 C 
ENDBRANCH  65  77
ENDBRANCH  62  65
ENDBRANCH  60  61
BRANCH  60  80
ATOM     80  CB  THR A   9      16.674  33.209  10.322  0.00  0.00    +0.137 C 
ATOM     81  CG2 THR A   9      15.702  32.977   9.181  0.00  0.00    +0.034 C 
BRANCH  80  82
ATOM     82  OG1 THR A   9      16.027  33.930  11.374  0.00  0.00    -0.382 OA
ATOM     83  HG1 THR A   9      16.682  34.125  12.090  0.00  0.00    +0.210 HD
ENDBRANCH  80  82
ENDBRANCH  60  80
ENDBRANCH  58  60
ENDBRANCH  55  56
BRANCH  55  84
ATOM     84  CB  ASP A   8      21.006  32.527  12.880  0.00  0.00    +0.143 C 
BRANCH  84  85
ATOM     85  CG  ASP A   8      22.077  33.416  13.483  0.00  0.00    +0.367 C 
ATOM     86  OD2 ASP A   8      23.057  32.856  14.018  0.00  0.00    -0.246 OA
ATOM     87  OD1 ASP A   8      21.925  34.644  13.416  0.00  0.00    -0.246 OA
ENDBRANCH  84  85
ENDBRANCH  55  84
ENDBRANCH  53  55
ENDBRANCH  50  51
BRANCH  50  88
ATOM     88  CB  ASP A   7      21.714  31.387  17.542  0.00  0.00    +0.143 C 
BRANCH  88  89
ATOM     89  CG  ASP A   7      22.137  30.796  18.886  0.00  0.00    +0.367 C 
ATOM     90  OD2 ASP A   7      21.438  30.939  19.912  0.00  0.00    -0.246 OA
ATOM     91  OD1 ASP A   7      23.245  30.193  18.931  0.00  0.00    -0.246 OA
ENDBRANCH  88  89
ENDBRANCH  50  88
ENDBRANCH   2  50
TORSDOF 39
REMARK  Name = ../refined-set-2016/3nu5/3nu5_pocket.pdb
REMARK  239 active torsions:
REMARK  status: ('A' for Active; 'I' for Inactive)
REMARK    1  A    between atoms: _1  and  _3
REMARK    2  A    between atoms: _3  and  _4
REMARK    3  A    between atoms: _3  and  _6
REMARK    4  A    between atoms: _6  and  _7
REMARK    5  A    between atoms: _7  and  _8
REMARK    6  A    between atoms: _8  and  _9
REMARK    7  A    between atoms: _18  and  _20
REMARK    8  A    between atoms: _20  and  _21
REMARK    9  A    between atoms: _20  and  _23
REMARK   10  A    between atoms: _23  and  _24
REMARK   11  A    between atoms: _27  and  _29
REMARK   12  A    between atoms: _29  and  _30
REMARK   13  A    between atoms: _29  and  _32
REMARK   14  A    between atoms: _32  and  _33
REMARK   15  A    between atoms: _36  and  _38
REMARK   16  A    between atoms: _38  and  _39
REMARK   17  A    between atoms: _38  and  _41
REMARK   18  A    between atoms: _41  and  _42
REMARK   19  A    between atoms: _45  and  _47
REMARK   20  A    between atoms: _47  and  _48
REMARK   21  A    between atoms: _47  and  _50
REMARK   22  A    between atoms: _50  and  _51
REMARK   23  A    between atoms: _54  and  _56
REMARK   24  A    between atoms: _56  and  _57
REMARK   25  A    between atoms: _59  and  _61
REMARK   26  A    between atoms: _61  and  _62
REMARK   27  A    between atoms: _65  and  _67
REMARK   28  A    between atoms: _67  and  _68
REMARK   29  A    between atoms: _67  and  _70
REMARK   30  A    between atoms: _70  and  _71
REMARK   31  A    between atoms: _74  and  _76
REMARK   32  A    between atoms: _76  and  _77
REMARK   33  A    between atoms: _76  and  _79
REMARK   34  A    between atoms: _79  and  _80
REMARK   35  A    between atoms: _83  and  _85
REMARK   36  A    between atoms: _85  and  _86
REMARK   37  A    between atoms: _85  and  _88
REMARK   38  A    between atoms: _88  and  _89
REMARK   39  A    between atoms: _92  and  _94
REMARK   40  A    between atoms: _94  and  _95
REMARK   41  A    between atoms: _94  and  _97
REMARK   42  A    between atoms: _100  and  _102
REMARK   43  A    between atoms: _102  and  _103
REMARK   44  A    between atoms: _102  and  _105
REMARK   45  A    between atoms: _105  and  _106
REMARK   46  A    between atoms: _109  and  _111
REMARK   47  A    between atoms: _111  and  _112
REMARK   48  A    between atoms: _111  and  _114
REMARK   49  A    between atoms: _114  and  _115
REMARK   50  A    between atoms: _115  and  _116
REMARK   51  A    between atoms: _116  and  _117
REMARK   52  A    between atoms: _117  and  _118
REMARK   53  A    between atoms: _122  and  _124
REMARK   54  A    between atoms: _124  and  _125
REMARK   55  A    between atoms: _124  and  _127
REMARK   56  A    between atoms: _127  and  _128
REMARK   57  A    between atoms: _128  and  _129
REMARK   58  A    between atoms: _131  and  _133
REMARK   59  A    between atoms: _133  and  _134
REMARK   60  A    between atoms: _133  and  _136
REMARK   61  A    between atoms: _136  and  _137
REMARK   62  A    between atoms: _140  and  _142
REMARK   63  A    between atoms: _142  and  _143
REMARK   64  A    between atoms: _145  and  _147
REMARK   65  A    between atoms: _147  and  _148
REMARK   66  A    between atoms: _150  and  _152
REMARK   67  A    between atoms: _152  and  _153
REMARK   68  A    between atoms: _152  and  _155
REMARK   69  A    between atoms: _158  and  _160
REMARK   70  A    between atoms: _160  and  _161
REMARK   71  A    between atoms: _163  and  _165
REMARK   72  A    between atoms: _165  and  _166
REMARK   73  A    between atoms: _168  and  _170
REMARK   74  A    between atoms: _170  and  _171
REMARK   75  A    between atoms: _170  and  _173
REMARK   76  A    between atoms: _173  and  _174
REMARK   77  A    between atoms: _180  and  _182
REMARK   78  A    between atoms: _182  and  _183
REMARK   79  A    between atoms: _182  and  _185
REMARK   80  A    between atoms: _185  and  _186
REMARK   81  A    between atoms: _189  and  _191
REMARK   82  A    between atoms: _191  and  _192
REMARK   83  A    between atoms: _191  and  _194
REMARK   84  A    between atoms: _197  and  _199
REMARK   85  A    between atoms: _199  and  _200
REMARK   86  A    between atoms: _199  and  _202
REMARK   87  A    between atoms: _202  and  _203
REMARK   88  A    between atoms: _207  and  _208
REMARK   89  A    between atoms: _213  and  _215
REMARK   90  A    between atoms: _215  and  _216
REMARK   91  A    between atoms: _215  and  _218
REMARK   92  A    between atoms: _218  and  _219
REMARK   93  A    between atoms: _223  and  _224
REMARK   94  A    between atoms: _229  and  _231
REMARK   95  A    between atoms: _231  and  _232
REMARK   96  A    between atoms: _231  and  _234
REMARK   97  A    between atoms: _237  and  _239
REMARK   98  A    between atoms: _239  and  _240
REMARK   99  A    between atoms: _239  and  _242
REMARK  100  A    between atoms: _242  and  _243
REMARK  101  A    between atoms: _248  and  _250
REMARK  102  A    between atoms: _250  and  _251
REMARK  103  A    between atoms: _250  and  _253
REMARK  104  A    between atoms: _253  and  _254
REMARK  105  A    between atoms: _257  and  _259
REMARK  106  A    between atoms: _259  and  _260
REMARK  107  A    between atoms: _259  and  _262
REMARK  108  A    between atoms: _262  and  _263
REMARK  109  A    between atoms: _266  and  _268
REMARK  110  A    between atoms: _268  and  _269
REMARK  111  A    between atoms: _271  and  _273
REMARK  112  A    between atoms: _273  and  _274
REMARK  113  A    between atoms: _273  and  _276
REMARK  114  A    between atoms: _276  and  _277
REMARK  115  A    between atoms: _277  and  _278
REMARK  116  A    between atoms: _278  and  _279
REMARK  117  A    between atoms: _288  and  _290
REMARK  118  A    between atoms: _290  and  _291
REMARK  119  A    between atoms: _290  and  _293
REMARK  120  A    between atoms: _293  and  _294
REMARK  121  A    between atoms: _299  and  _301
REMARK  122  A    between atoms: _301  and  _302
REMARK  123  A    between atoms: _301  and  _304
REMARK  124  A    between atoms: _304  and  _305
REMARK  125  A    between atoms: _305  and  _306
REMARK  126  A    between atoms: _306  and  _307
REMARK  127  A    between atoms: _316  and  _318
REMARK  128  A    between atoms: _318  and  _319
REMARK  129  A    between atoms: _318  and  _321
REMARK  130  A    between atoms: _321  and  _322
REMARK  131  A    between atoms: _325  and  _327
REMARK  132  A    between atoms: _327  and  _328
REMARK  133  A    between atoms: _327  and  _330
REMARK  134  A    between atoms: _330  and  _331
REMARK  135  A    between atoms: _334  and  _336
REMARK  136  A    between atoms: _336  and  _337
REMARK  137  A    between atoms: _336  and  _339
REMARK  138  A    between atoms: _339  and  _340
REMARK  139  A    between atoms: _343  and  _345
REMARK  140  A    between atoms: _345  and  _346
REMARK  141  A    between atoms: _345  and  _348
REMARK  142  A    between atoms: _348  and  _349
REMARK  143  A    between atoms: _352  and  _354
REMARK  144  A    between atoms: _354  and  _355
REMARK  145  A    between atoms: _357  and  _359
REMARK  146  A    between atoms: _359  and  _360
REMARK  147  A    between atoms: _363  and  _365
REMARK  148  A    between atoms: _365  and  _366
REMARK  149  A    between atoms: _365  and  _368
REMARK  150  A    between atoms: _368  and  _369
REMARK  151  A    between atoms: _372  and  _374
REMARK  152  A    between atoms: _374  and  _375
REMARK  153  A    between atoms: _374  and  _377
REMARK  154  A    between atoms: _377  and  _378
REMARK  155  A    between atoms: _381  and  _383
REMARK  156  A    between atoms: _383  and  _384
REMARK  157  A    between atoms: _383  and  _386
REMARK  158  A    between atoms: _386  and  _387
REMARK  159  A    between atoms: _390  and  _392
REMARK  160  A    between atoms: _392  and  _393
REMARK  161  A    between atoms: _392  and  _395
REMARK  162  A    between atoms: _398  and  _400
REMARK  163  A    between atoms: _400  and  _401
REMARK  164  A    between atoms: _400  and  _403
REMARK  165  A    between atoms: _403  and  _404
REMARK  166  A    between atoms: _407  and  _409
REMARK  167  A    between atoms: _409  and  _410
REMARK  168  A    between atoms: _409  and  _412
REMARK  169  A    between atoms: _412  and  _413
REMARK  170  A    between atoms: _413  and  _414
REMARK  171  A    between atoms: _414  and  _415
REMARK  172  A    between atoms: _415  and  _416
REMARK  173  A    between atoms: _420  and  _422
REMARK  174  A    between atoms: _422  and  _423
REMARK  175  A    between atoms: _422  and  _425
REMARK  176  A    between atoms: _425  and  _426
REMARK  177  A    between atoms: _426  and  _427
REMARK  178  A    between atoms: _429  and  _431
REMARK  179  A    between atoms: _431  and  _432
REMARK  180  A    between atoms: _431  and  _434
REMARK  181  A    between atoms: _434  and  _435
REMARK  182  A    between atoms: _438  and  _440
REMARK  183  A    between atoms: _440  and  _441
REMARK  184  A    between atoms: _443  and  _445
REMARK  185  A    between atoms: _445  and  _446
REMARK  186  A    between atoms: _448  and  _450
REMARK  187  A    between atoms: _450  and  _451
REMARK  188  A    between atoms: _450  and  _453
REMARK  189  A    between atoms: _456  and  _458
REMARK  190  A    between atoms: _458  and  _459
REMARK  191  A    between atoms: _461  and  _463
REMARK  192  A    between atoms: _463  and  _464
REMARK  193  A    between atoms: _466  and  _468
REMARK  194  A    between atoms: _468  and  _469
REMARK  195  A    between atoms: _468  and  _471
REMARK  196  A    between atoms: _471  and  _472
REMARK  197  A    between atoms: _478  and  _480
REMARK  198  A    between atoms: _480  and  _481
REMARK  199  A    between atoms: _480  and  _483
REMARK  200  A    between atoms: _483  and  _484
REMARK  201  A    between atoms: _487  and  _489
REMARK  202  A    between atoms: _489  and  _490
REMARK  203  A    between atoms: _489  and  _492
REMARK  204  A    between atoms: _495  and  _497
REMARK  205  A    between atoms: _497  and  _498
REMARK  206  A    between atoms: _497  and  _500
REMARK  207  A    between atoms: _500  and  _501
REMARK  208  A    between atoms: _504  and  _506
REMARK  209  A    between atoms: _506  and  _507
REMARK  210  A    between atoms: _506  and  _509
REMARK  211  A    between atoms: _509  and  _510
REMARK  212  A    between atoms: _514  and  _515
REMARK  213  A    between atoms: _520  and  _522
REMARK  214  A    between atoms: _522  and  _523
REMARK  215  A    between atoms: _522  and  _525
REMARK  216  A    between atoms: _528  and  _530
REMARK  217  A    between atoms: _530  and  _531
REMARK  218  A    between atoms: _530  and  _533
REMARK  219  A    between atoms: _533  and  _534
REMARK  220  A    between atoms: _539  and  _541
REMARK  221  A    between atoms: _541  and  _542
REMARK  222  A    between atoms: _541  and  _544
REMARK  223  A    between atoms: _544  and  _545
REMARK  224  A    between atoms: _548  and  _550
REMARK  225  A    between atoms: _550  and  _551
REMARK  226  A    between atoms: _550  and  _553
REMARK  227  A    between atoms: _553  and  _554
REMARK  228  A    between atoms: _557  and  _559
REMARK  229  A    between atoms: _559  and  _560
REMARK  230  A    between atoms: _562  and  _564
REMARK  231  A    between atoms: _564  and  _565
REMARK  232  A    between atoms: _564  and  _567
REMARK  233  A    between atoms: _567  and  _568
REMARK  234  A    between atoms: _568  and  _569
REMARK  235  A    between atoms: _569  and  _570
REMARK  236  A    between atoms: _579  and  _581
REMARK  237  A    between atoms: _581  and  _582
REMARK  238  A    between atoms: _581  and  _584
REMARK  239  A    between atoms: _584  and  _585
REMARK                            x       y       z     vdW  Elec       q    Type
REMARK                         _______ _______ _______ _____ _____    ______ ____
ROOT
ATOM      1  C   GLY A   5      21.318  19.448  17.622  0.00  0.00    +0.243 C 
ATOM      2  N   VAL A   6      20.094  19.105  17.967  0.00  0.00    -0.297 N 
ATOM      3  H   VAL A   6      19.347  19.820  18.077  0.00  0.00    +0.150 HD
ATOM      4  O   GLY A   5      22.259  18.695  17.611  0.00  0.00    -0.273 OA
ENDROOT
BRANCH   1   5
ATOM      5  CA  GLY A   5      21.537  20.885  17.249  0.00  0.00    +0.176 C 
BRANCH   5   8
ATOM      6  C   GLY A   4      23.168  22.234  16.131  0.00  0.00    +0.243 C 
ATOM      7  O   GLY A   4      22.729  23.244  16.639  0.00  0.00    -0.273 OA
ATOM      8  N   GLY A   5      22.664  21.037  16.365  0.00  0.00    -0.295 N 
ATOM      9  H   GLY A   5      23.082  20.201  15.910  0.00  0.00    +0.150 HD
BRANCH   6  10
ATOM     10  CA  GLY A   4      24.308  22.194  15.139  0.00  0.00    +0.176 C 
BRANCH  10  12
ATOM     11  C   ILE A   3      24.648  23.489  13.154  0.00  0.00    +0.241 C 
ATOM     12  N   GLY A   4      24.463  23.458  14.468  0.00  0.00    -0.295 N 
ATOM     13  H   GLY A   4      24.430  24.344  15.011  0.00  0.00    +0.150 HD
ATOM     14  O   ILE A   3      24.547  22.541  12.422  0.00  0.00    -0.273 OA
BRANCH  11  15
ATOM     15  CA  ILE A   3      25.062  24.842  12.612  0.00  0.00    +0.149 C 
BRANCH  15  18
ATOM     16  C   MET A   2      27.126  25.174  11.351  0.00  0.00    +0.241 C 
ATOM     17  O   MET A   2      27.549  26.010  12.187  0.00  0.00    -0.273 OA
ATOM     18  N   ILE A   3      25.931  24.628  11.464  0.00  0.00    -0.297 N 
ATOM     19  H   ILE A   3      25.593  24.014  10.695  0.00  0.00    +0.150 HD
BRANCH  16  20
ATOM     20  CA  MET A   2      27.997  24.754  10.170  0.00  0.00    +0.149 C 
BRANCH  20  22
ATOM     21  C   LYS A   1      28.314  26.405   8.425  0.00  0.00    +0.238 C 
ATOM     22  N   MET A   2      28.630  25.937   9.614  0.00  0.00    -0.297 N 
ATOM     23  H   MET A   2      29.356  26.430  10.173  0.00  0.00    +0.150 HD
ATOM     24  O   LYS A   1      27.624  25.786   7.622  0.00  0.00    -0.274 OA
BRANCH  21  25
ATOM     25  CA  LYS A   1      28.799  27.757   7.994  0.00  0.00    +0.145 C 
BRANCH  25  26
ATOM     26  N   LYS A   1      28.910  27.828   6.565  0.00  0.00    -0.238 NA
ATOM     27  H   LYS A   1      28.268  27.240   5.996  0.00  0.00    +0.142 HD
ENDBRANCH  25  26
BRANCH  25  28
ATOM     28  CB  LYS A   1      27.750  28.812   8.434  0.00  0.00    +0.026 C 
BRANCH  28  29
ATOM     29  CG  LYS A   1      27.685  29.080   9.903  0.00  0.00    -0.000 C 
BRANCH  29  30
ATOM     30  CD  LYS A   1      26.702  30.153  10.253  0.00  0.00    -0.024 C 
BRANCH  30  31
ATOM     31  CE  LYS A   1      26.269  30.268  11.683  0.00  0.00    -0.086 C 
BRANCH  31  32
ATOM     32  NZ  LYS A   1      27.237  31.108  12.413  0.00  0.00    +0.380 N 
ATOM     33  HZ1 LYS A   1      26.942  31.191  13.407  0.00  0.00    -0.089 HD
ATOM     34  HZ2 LYS A   1      28.179  30.670  12.366  0.00  0.00    -0.089 HD
ATOM     35  HZ3 LYS A   1      27.270  32.053  11.979  0.00  0.00    -0.089 HD
ENDBRANCH  31  32
ENDBRANCH  30  31
ENDBRANCH  29  30
ENDBRANCH  28  29
ENDBRANCH  25  28
ENDBRANCH  21  25
ENDBRANCH  20  22
BRANCH  20  36
ATOM     36  CB  MET A   2      29.050  23.771  10.666  0.00  0.00    +0.041 C 
BRANCH  36  37
ATOM     37  CG  MET A   2      29.919  23.130   9.621  0.00  0.00    +0.060 C 
BRANCH  37  38
ATOM     38  SD  MET A   2      29.017  22.003   8.596  0.00  0.00    -0.139 S 
ATOM     39  CE  MET A   2      30.372  21.112   7.776  0.00  0.00    +0.069 C 
ENDBRANCH  37  38
ENDBRANCH  36  37
ENDBRANCH  20  36
ENDBRANCH  16  20
ENDBRANCH  15  18
BRANCH  15  40
ATOM     40  CB  ILE A   3      23.840  25.692  12.322  0.00  0.00    +0.027 C 
ATOM     41  CG2 ILE A   3      24.230  27.104  11.949  0.00  0.00    +0.002 C 
BRANCH  40  42
ATOM     42  CG1 ILE A   3      22.942  25.086  11.265  0.00  0.00    +0.002 C 
ATOM     43  CD1 ILE A   3      21.577  25.689  11.075  0.00  0.00    +0.000 C 
ENDBRANCH  40  42
ENDBRANCH  15  40
ENDBRANCH  11  15
ENDBRANCH  10  12
ENDBRANCH   6  10
ENDBRANCH   5   8
ENDBRANCH   1   5
BRANCH   2  44
ATOM     44  CA  VAL A   6      19.816  17.672  18.193  0.00  0.00    +0.149 C 
BRANCH  44  45
ATOM     45  C   VAL A   6      20.060  16.946  16.895  0.00  0.00    +0.241 C 
ATOM     46  N   GLY A   7      20.742  15.815  16.992  0.00  0.00    -0.295 N 
ATOM     47  H   GLY A   7      20.989  15.454  17.936  0.00  0.00    +0.150 HD
ATOM     48  O   VAL A   6      19.649  17.340  15.819  0.00  0.00    -0.273 OA
BRANCH  46  49
ATOM     49  CA  GLY A   7      21.144  15.083  15.850  0.00  0.00    +0.176 C 
BRANCH  49  50
ATOM     50  C   GLY A   7      22.449  15.511  15.230  0.00  0.00    +0.243 C 
ATOM     51  N   GLY A   8      23.118  16.566  15.636  0.00  0.00    -0.295 N 
ATOM     52  H   GLY A   8      22.734  17.143  16.412  0.00  0.00    +0.150 HD
ATOM     53  O   GLY A   7      22.843  14.827  14.306  0.00  0.00    -0.273 OA
BRANCH  51  54
ATOM     54  CA  GLY A   8      24.395  16.951  15.021  0.00  0.00    +0.176 C 
BRANCH  54  55
ATOM     55  C   GLY A   8      24.275  18.201  14.164  0.00  0.00    +0.243 C 
ATOM     56  O   GLY A   8      23.425  19.053  14.389  0.00  0.00    -0.273 OA
ATOM     57  N   PHE A   9      25.174  18.318  13.190  0.00  0.00    -0.297 N 
ATOM     58  H   PHE A   9      25.755  17.490  12.947  0.00  0.00    +0.150 HD
BRANCH  57  59
ATOM     59  CA  PHE A   9      25.379  19.546  12.454  0.00  0.00    +0.153 C 
BRANCH  59  60
ATOM     60  C   PHE A   9      25.011  19.391  10.983  0.00  0.00    +0.241 C 
ATOM     61  O   PHE A   9      25.070  18.282  10.436  0.00  0.00    -0.273 OA
ATOM     62  N   ILE A  10      24.638  20.489  10.375  0.00  0.00    -0.298 N 
ATOM     63  H   ILE A  10      24.461  21.328  10.963  0.00  0.00    +0.150 HD
BRANCH  62  64
ATOM     64  CA  ILE A  10      24.452  20.623   8.932  0.00  0.00    +0.137 C 
BRANCH  64  65
ATOM     65  CB  ILE A  10      22.976  20.782   8.490  0.00  0.00    +0.026 C 
ATOM     66  CG2 ILE A  10      22.188  19.534   8.888  0.00  0.00    +0.002 C 
BRANCH  65  67
ATOM     67  CG1 ILE A  10      22.299  22.031   9.026  0.00  0.00    +0.002 C 
ATOM     68  CD1 ILE A  10      20.963  22.334   8.392  0.00  0.00    +0.000 C 
ENDBRANCH  65  67
ENDBRANCH  64  65
BRANCH  64  69
ATOM     69  C   ILE A  10      25.246  21.815   8.410  0.00  0.00    +0.227 C 
ATOM     70  O   ILE A  10      25.474  22.783   9.112  0.00  0.00    -0.286 OA
ENDBRANCH  64  69
ENDBRANCH  62  64
ENDBRANCH  59  60
BRANCH  59  71
ATOM     71  CB  PHE A   9      26.858  19.910  12.525  0.00  0.00    +0.055 C 
BRANCH  71  72
ATOM     72  CG  PHE A   9      27.320  20.498  13.829  0.00  0.00    -0.020 A 
ATOM     73  CD2 PHE A   9      27.553  19.635  14.898  0.00  0.00    -0.004 A 
ATOM     74  CE2 PHE A   9      27.948  20.152  16.104  0.00  0.00    -0.000 A 
ATOM     75  CZ  PHE A   9      28.099  21.504  16.236  0.00  0.00    -0.000 A 
ATOM     76  CE1 PHE A   9      27.886  22.396  15.224  0.00  0.00    -0.000 A 
ATOM     77  CD1 PHE A   9      27.518  21.853  13.990  0.00  0.00    -0.004 A 
ENDBRANCH  71  72
ENDBRANCH  59  71
ENDBRANCH  57  59
ENDBRANCH  54  55
ENDBRANCH  51  54
ENDBRANCH  49  50
ENDBRANCH  46  49
ENDBRANCH  44  45
BRANCH  44  78
ATOM     78  CB  VAL A   6      18.365  17.537  18.686  0.00  0.00    +0.027 C 
ATOM     79  CG2 VAL A   6      18.296  17.919  20.167  0.00  0.00    +0.002 C 
ATOM     80  CG1 VAL A   6      17.733  16.136  18.528  0.00  0.00    +0.002 C 
ENDBRANCH  44  78
ENDBRANCH   2  44
TORSDOF 35
REMARK  Name = ../refined-set-2016/3nu5/3nu5_pocket.pdb
REMARK  239 active torsions:
REMARK  status: ('A' for Active; 'I' for Inactive)
REMARK    1  A    between atoms: _1  and  _3
REMARK    2  A    between atoms: _3  and  _4
REMARK    3  A    between atoms: _3  and  _6
REMARK    4  A    between atoms: _6  and  _7
REMARK    5  A    between atoms: _7  and  _8
REMARK    6  A    between atoms: _8  and  _9
REMARK    7  A    between atoms: _18  and  _20
REMARK    8  A    between atoms: _20  and  _21
REMARK    9  A    between atoms: _20  and  _23
REMARK   10  A    between atoms: _23  and  _24
REMARK   11  A    between atoms: _27  and  _29
REMARK   12  A    between atoms: _29  and  _30
REMARK   13  A    between atoms: _29  and  _32
REMARK   14  A    between atoms: _32  and  _33
REMARK   15  A    between atoms: _36  and  _38
REMARK   16  A    between atoms: _38  and  _39
REMARK   17  A    between atoms: _38  and  _41
REMARK   18  A    between atoms: _41  and  _42
REMARK   19  A    between atoms: _45  and  _47
REMARK   20  A    between atoms: _47  and  _48
REMARK   21  A    between atoms: _47  and  _50
REMARK   22  A    between atoms: _50  and  _51
REMARK   23  A    between atoms: _54  and  _56
REMARK   24  A    between atoms: _56  and  _57
REMARK   25  A    between atoms: _59  and  _61
REMARK   26  A    between atoms: _61  and  _62
REMARK   27  A    between atoms: _65  and  _67
REMARK   28  A    between atoms: _67  and  _68
REMARK   29  A    between atoms: _67  and  _70
REMARK   30  A    between atoms: _70  and  _71
REMARK   31  A    between atoms: _74  and  _76
REMARK   32  A    between atoms: _76  and  _77
REMARK   33  A    between atoms: _76  and  _79
REMARK   34  A    between atoms: _79  and  _80
REMARK   35  A    between atoms: _83  and  _85
REMARK   36  A    between atoms: _85  and  _86
REMARK   37  A    between atoms: _85  and  _88
REMARK   38  A    between atoms: _88  and  _89
REMARK   39  A    between atoms: _92  and  _94
REMARK   40  A    between atoms: _94  and  _95
REMARK   41  A    between atoms: _94  and  _97
REMARK   42  A    between atoms: _100  and  _102
REMARK   43  A    between atoms: _102  and  _103
REMARK   44  A    between atoms: _102  and  _105
REMARK   45  A    between atoms: _105  and  _106
REMARK   46  A    between atoms: _109  and  _111
REMARK   47  A    between atoms: _111  and  _112
REMARK   48  A    between atoms: _111  and  _114
REMARK   49  A    between atoms: _114  and  _115
REMARK   50  A    between atoms: _115  and  _116
REMARK   51  A    between atoms: _116  and  _117
REMARK   52  A    between atoms: _117  and  _118
REMARK   53  A    between atoms: _122  and  _124
REMARK   54  A    between atoms: _124  and  _125
REMARK   55  A    between atoms: _124  and  _127
REMARK   56  A    between atoms: _127  and  _128
REMARK   57  A    between atoms: _128  and  _129
REMARK   58  A    between atoms: _131  and  _133
REMARK   59  A    between atoms: _133  and  _134
REMARK   60  A    between atoms: _133  and  _136
REMARK   61  A    between atoms: _136  and  _137
REMARK   62  A    between atoms: _140  and  _142
REMARK   63  A    between atoms: _142  and  _143
REMARK   64  A    between atoms: _145  and  _147
REMARK   65  A    between atoms: _147  and  _148
REMARK   66  A    between atoms: _150  and  _152
REMARK   67  A    between atoms: _152  and  _153
REMARK   68  A    between atoms: _152  and  _155
REMARK   69  A    between atoms: _158  and  _160
REMARK   70  A    between atoms: _160  and  _161
REMARK   71  A    between atoms: _163  and  _165
REMARK   72  A    between atoms: _165  and  _166
REMARK   73  A    between atoms: _168  and  _170
REMARK   74  A    between atoms: _170  and  _171
REMARK   75  A    between atoms: _170  and  _173
REMARK   76  A    between atoms: _173  and  _174
REMARK   77  A    between atoms: _180  and  _182
REMARK   78  A    between atoms: _182  and  _183
REMARK   79  A    between atoms: _182  and  _185
REMARK   80  A    between atoms: _185  and  _186
REMARK   81  A    between atoms: _189  and  _191
REMARK   82  A    between atoms: _191  and  _192
REMARK   83  A    between atoms: _191  and  _194
REMARK   84  A    between atoms: _197  and  _199
REMARK   85  A    between atoms: _199  and  _200
REMARK   86  A    between atoms: _199  and  _202
REMARK   87  A    between atoms: _202  and  _203
REMARK   88  A    between atoms: _207  and  _208
REMARK   89  A    between atoms: _213  and  _215
REMARK   90  A    between atoms: _215  and  _216
REMARK   91  A    between atoms: _215  and  _218
REMARK   92  A    between atoms: _218  and  _219
REMARK   93  A    between atoms: _223  and  _224
REMARK   94  A    between atoms: _229  and  _231
REMARK   95  A    between atoms: _231  and  _232
REMARK   96  A    between atoms: _231  and  _234
REMARK   97  A    between atoms: _237  and  _239
REMARK   98  A    between atoms: _239  and  _240
REMARK   99  A    between atoms: _239  and  _242
REMARK  100  A    between atoms: _242  and  _243
REMARK  101  A    between atoms: _248  and  _250
REMARK  102  A    between atoms: _250  and  _251
REMARK  103  A    between atoms: _250  and  _253
REMARK  104  A    between atoms: _253  and  _254
REMARK  105  A    between atoms: _257  and  _259
REMARK  106  A    between atoms: _259  and  _260
REMARK  107  A    between atoms: _259  and  _262
REMARK  108  A    between atoms: _262  and  _263
REMARK  109  A    between atoms: _266  and  _268
REMARK  110  A    between atoms: _268  and  _269
REMARK  111  A    between atoms: _271  and  _273
REMARK  112  A    between atoms: _273  and  _274
REMARK  113  A    between atoms: _273  and  _276
REMARK  114  A    between atoms: _276  and  _277
REMARK  115  A    between atoms: _277  and  _278
REMARK  116  A    between atoms: _278  and  _279
REMARK  117  A    between atoms: _288  and  _290
REMARK  118  A    between atoms: _290  and  _291
REMARK  119  A    between atoms: _290  and  _293
REMARK  120  A    between atoms: _293  and  _294
REMARK  121  A    between atoms: _299  and  _301
REMARK  122  A    between atoms: _301  and  _302
REMARK  123  A    between atoms: _301  and  _304
REMARK  124  A    between atoms: _304  and  _305
REMARK  125  A    between atoms: _305  and  _306
REMARK  126  A    between atoms: _306  and  _307
REMARK  127  A    between atoms: _316  and  _318
REMARK  128  A    between atoms: _318  and  _319
REMARK  129  A    between atoms: _318  and  _321
REMARK  130  A    between atoms: _321  and  _322
REMARK  131  A    between atoms: _325  and  _327
REMARK  132  A    between atoms: _327  and  _328
REMARK  133  A    between atoms: _327  and  _330
REMARK  134  A    between atoms: _330  and  _331
REMARK  135  A    between atoms: _334  and  _336
REMARK  136  A    between atoms: _336  and  _337
REMARK  137  A    between atoms: _336  and  _339
REMARK  138  A    between atoms: _339  and  _340
REMARK  139  A    between atoms: _343  and  _345
REMARK  140  A    between atoms: _345  and  _346
REMARK  141  A    between atoms: _345  and  _348
REMARK  142  A    between atoms: _348  and  _349
REMARK  143  A    between atoms: _352  and  _354
REMARK  144  A    between atoms: _354  and  _355
REMARK  145  A    between atoms: _357  and  _359
REMARK  146  A    between atoms: _359  and  _360
REMARK  147  A    between atoms: _363  and  _365
REMARK  148  A    between atoms: _365  and  _366
REMARK  149  A    between atoms: _365  and  _368
REMARK  150  A    between atoms: _368  and  _369
REMARK  151  A    between atoms: _372  and  _374
REMARK  152  A    between atoms: _374  and  _375
REMARK  153  A    between atoms: _374  and  _377
REMARK  154  A    between atoms: _377  and  _378
REMARK  155  A    between atoms: _381  and  _383
REMARK  156  A    between atoms: _383  and  _384
REMARK  157  A    between atoms: _383  and  _386
REMARK  158  A    between atoms: _386  and  _387
REMARK  159  A    between atoms: _390  and  _392
REMARK  160  A    between atoms: _392  and  _393
REMARK  161  A    between atoms: _392  and  _395
REMARK  162  A    between atoms: _398  and  _400
REMARK  163  A    between atoms: _400  and  _401
REMARK  164  A    between atoms: _400  and  _403
REMARK  165  A    between atoms: _403  and  _404
REMARK  166  A    between atoms: _407  and  _409
REMARK  167  A    between atoms: _409  and  _410
REMARK  168  A    between atoms: _409  and  _412
REMARK  169  A    between atoms: _412  and  _413
REMARK  170  A    between atoms: _413  and  _414
REMARK  171  A    between atoms: _414  and  _415
REMARK  172  A    between atoms: _415  and  _416
REMARK  173  A    between atoms: _420  and  _422
REMARK  174  A    between atoms: _422  and  _423
REMARK  175  A    between atoms: _422  and  _425
REMARK  176  A    between atoms: _425  and  _426
REMARK  177  A    between atoms: _426  and  _427
REMARK  178  A    between atoms: _429  and  _431
REMARK  179  A    between atoms: _431  and  _432
REMARK  180  A    between atoms: _431  and  _434
REMARK  181  A    between atoms: _434  and  _435
REMARK  182  A    between atoms: _438  and  _440
REMARK  183  A    between atoms: _440  and  _441
REMARK  184  A    between atoms: _443  and  _445
REMARK  185  A    between atoms: _445  and  _446
REMARK  186  A    between atoms: _448  and  _450
REMARK  187  A    between atoms: _450  and  _451
REMARK  188  A    between atoms: _450  and  _453
REMARK  189  A    between atoms: _456  and  _458
REMARK  190  A    between atoms: _458  and  _459
REMARK  191  A    between atoms: _461  and  _463
REMARK  192  A    between atoms: _463  and  _464
REMARK  193  A    between atoms: _466  and  _468
REMARK  194  A    between atoms: _468  and  _469
REMARK  195  A    between atoms: _468  and  _471
REMARK  196  A    between atoms: _471  and  _472
REMARK  197  A    between atoms: _478  and  _480
REMARK  198  A    between atoms: _480  and  _481
REMARK  199  A    between atoms: _480  and  _483
REMARK  200  A    between atoms: _483  and  _484
REMARK  201  A    between atoms: _487  and  _489
REMARK  202  A    between atoms: _489  and  _490
REMARK  203  A    between atoms: _489  and  _492
REMARK  204  A    between atoms: _495  and  _497
REMARK  205  A    between atoms: _497  and  _498
REMARK  206  A    between atoms: _497  and  _500
REMARK  207  A    between atoms: _500  and  _501
REMARK  208  A    between atoms: _504  and  _506
REMARK  209  A    between atoms: _506  and  _507
REMARK  210  A    between atoms: _506  and  _509
REMARK  211  A    between atoms: _509  and  _510
REMARK  212  A    between atoms: _514  and  _515
REMARK  213  A    between atoms: _520  and  _522
REMARK  214  A    between atoms: _522  and  _523
REMARK  215  A    between atoms: _522  and  _525
REMARK  216  A    between atoms: _528  and  _530
REMARK  217  A    between atoms: _530  and  _531
REMARK  218  A    between atoms: _530  and  _533
REMARK  219  A    between atoms: _533  and  _534
REMARK  220  A    between atoms: _539  and  _541
REMARK  221  A    between atoms: _541  and  _542
REMARK  222  A    between atoms: _541  and  _544
REMARK  223  A    between atoms: _544  and  _545
REMARK  224  A    between atoms: _548  and  _550
REMARK  225  A    between atoms: _550  and  _551
REMARK  226  A    between atoms: _550  and  _553
REMARK  227  A    between atoms: _553  and  _554
REMARK  228  A    between atoms: _557  and  _559
REMARK  229  A    between atoms: _559  and  _560
REMARK  230  A    between atoms: _562  and  _564
REMARK  231  A    between atoms: _564  and  _565
REMARK  232  A    between atoms: _564  and  _567
REMARK  233  A    between atoms: _567  and  _568
REMARK  234  A    between atoms: _568  and  _569
REMARK  235  A    between atoms: _569  and  _570
REMARK  236  A    between atoms: _579  and  _581
REMARK  237  A    between atoms: _581  and  _582
REMARK  238  A    between atoms: _581  and  _584
REMARK  239  A    between atoms: _584  and  _585
REMARK                            x       y       z     vdW  Elec       q    Type
REMARK                         _______ _______ _______ _____ _____    ______ ____
ROOT
ATOM      1  CA  VAL A   1      24.521  25.951   5.346  0.00  0.00    +0.133 C 
ENDROOT
BRANCH   1   2
ATOM      2  CB  VAL A   1      23.644  26.579   6.451  0.00  0.00    +0.023 C 
ATOM      3  CG2 VAL A   1      24.429  27.343   7.496  0.00  0.00    +0.002 C 
ATOM      4  CG1 VAL A   1      22.846  25.464   7.130  0.00  0.00    +0.002 C 
ENDBRANCH   1   2
BRANCH   1   5
ATOM      5  N   VAL A   1      25.436  24.975   5.917  0.00  0.00    -0.239 NA
ATOM      6  H   VAL A   1      26.239  25.324   6.478  0.00  0.00    +0.142 HD
ENDBRANCH   1   5
BRANCH   1   7
ATOM      7  C   VAL A   1      25.320  27.059   4.646  0.00  0.00    +0.224 C 
ATOM      8  O   VAL A   1      26.546  27.184   4.875  0.00  0.00    -0.287 OA
ENDBRANCH   1   7
TORSDOF 3
REMARK  Name = ../refined-set-2016/3nu5/3nu5_pocket.pdb
REMARK  239 active torsions:
REMARK  status: ('A' for Active; 'I' for Inactive)
REMARK    1  A    between atoms: _1  and  _3
REMARK    2  A    between atoms: _3  and  _4
REMARK    3  A    between atoms: _3  and  _6
REMARK    4  A    between atoms: _6  and  _7
REMARK    5  A    between atoms: _7  and  _8
REMARK    6  A    between atoms: _8  and  _9
REMARK    7  A    between atoms: _18  and  _20
REMARK    8  A    between atoms: _20  and  _21
REMARK    9  A    between atoms: _20  and  _23
REMARK   10  A    between atoms: _23  and  _24
REMARK   11  A    between atoms: _27  and  _29
REMARK   12  A    between atoms: _29  and  _30
REMARK   13  A    between atoms: _29  and  _32
REMARK   14  A    between atoms: _32  and  _33
REMARK   15  A    between atoms: _36  and  _38
REMARK   16  A    between atoms: _38  and  _39
REMARK   17  A    between atoms: _38  and  _41
REMARK   18  A    between atoms: _41  and  _42
REMARK   19  A    between atoms: _45  and  _47
REMARK   20  A    between atoms: _47  and  _48
REMARK   21  A    between atoms: _47  and  _50
REMARK   22  A    between atoms: _50  and  _51
REMARK   23  A    between atoms: _54  and  _56
REMARK   24  A    between atoms: _56  and  _57
REMARK   25  A    between atoms: _59  and  _61
REMARK   26  A    between atoms: _61  and  _62
REMARK   27  A    between atoms: _65  and  _67
REMARK   28  A    between atoms: _67  and  _68
REMARK   29  A    between atoms: _67  and  _70
REMARK   30  A    between atoms: _70  and  _71
REMARK   31  A    between atoms: _74  and  _76
REMARK   32  A    between atoms: _76  and  _77
REMARK   33  A    between atoms: _76  and  _79
REMARK   34  A    between atoms: _79  and  _80
REMARK   35  A    between atoms: _83  and  _85
REMARK   36  A    between atoms: _85  and  _86
REMARK   37  A    between atoms: _85  and  _88
REMARK   38  A    between atoms: _88  and  _89
REMARK   39  A    between atoms: _92  and  _94
REMARK   40  A    between atoms: _94  and  _95
REMARK   41  A    between atoms: _94  and  _97
REMARK   42  A    between atoms: _100  and  _102
REMARK   43  A    between atoms: _102  and  _103
REMARK   44  A    between atoms: _102  and  _105
REMARK   45  A    between atoms: _105  and  _106
REMARK   46  A    between atoms: _109  and  _111
REMARK   47  A    between atoms: _111  and  _112
REMARK   48  A    between atoms: _111  and  _114
REMARK   49  A    between atoms: _114  and  _115
REMARK   50  A    between atoms: _115  and  _116
REMARK   51  A    between atoms: _116  and  _117
REMARK   52  A    between atoms: _117  and  _118
REMARK   53  A    between atoms: _122  and  _124
REMARK   54  A    between atoms: _124  and  _125
REMARK   55  A    between atoms: _124  and  _127
REMARK   56  A    between atoms: _127  and  _128
REMARK   57  A    between atoms: _128  and  _129
REMARK   58  A    between atoms: _131  and  _133
REMARK   59  A    between atoms: _133  and  _134
REMARK   60  A    between atoms: _133  and  _136
REMARK   61  A    between atoms: _136  and  _137
REMARK   62  A    between atoms: _140  and  _142
REMARK   63  A    between atoms: _142  and  _143
REMARK   64  A    between atoms: _145  and  _147
REMARK   65  A    between atoms: _147  and  _148
REMARK   66  A    between atoms: _150  and  _152
REMARK   67  A    between atoms: _152  and  _153
REMARK   68  A    between atoms: _152  and  _155
REMARK   69  A    between atoms: _158  and  _160
REMARK   70  A    between atoms: _160  and  _161
REMARK   71  A    between atoms: _163  and  _165
REMARK   72  A    between atoms: _165  and  _166
REMARK   73  A    between atoms: _168  and  _170
REMARK   74  A    between atoms: _170  and  _171
REMARK   75  A    between atoms: _170  and  _173
REMARK   76  A    between atoms: _173  and  _174
REMARK   77  A    between atoms: _180  and  _182
REMARK   78  A    between atoms: _182  and  _183
REMARK   79  A    between atoms: _182  and  _185
REMARK   80  A    between atoms: _185  and  _186
REMARK   81  A    between atoms: _189  and  _191
REMARK   82  A    between atoms: _191  and  _192
REMARK   83  A    between atoms: _191  and  _194
REMARK   84  A    between atoms: _197  and  _199
REMARK   85  A    between atoms: _199  and  _200
REMARK   86  A    between atoms: _199  and  _202
REMARK   87  A    between atoms: _202  and  _203
REMARK   88  A    between atoms: _207  and  _208
REMARK   89  A    between atoms: _213  and  _215
REMARK   90  A    between atoms: _215  and  _216
REMARK   91  A    between atoms: _215  and  _218
REMARK   92  A    between atoms: _218  and  _219
REMARK   93  A    between atoms: _223  and  _224
REMARK   94  A    between atoms: _229  and  _231
REMARK   95  A    between atoms: _231  and  _232
REMARK   96  A    between atoms: _231  and  _234
REMARK   97  A    between atoms: _237  and  _239
REMARK   98  A    between atoms: _239  and  _240
REMARK   99  A    between atoms: _239  and  _242
REMARK  100  A    between atoms: _242  and  _243
REMARK  101  A    between atoms: _248  and  _250
REMARK  102  A    between atoms: _250  and  _251
REMARK  103  A    between atoms: _250  and  _253
REMARK  104  A    between atoms: _253  and  _254
REMARK  105  A    between atoms: _257  and  _259
REMARK  106  A    between atoms: _259  and  _260
REMARK  107  A    between atoms: _259  and  _262
REMARK  108  A    between atoms: _262  and  _263
REMARK  109  A    between atoms: _266  and  _268
REMARK  110  A    between atoms: _268  and  _269
REMARK  111  A    between atoms: _271  and  _273
REMARK  112  A    between atoms: _273  and  _274
REMARK  113  A    between atoms: _273  and  _276
REMARK  114  A    between atoms: _276  and  _277
REMARK  115  A    between atoms: _277  and  _278
REMARK  116  A    between atoms: _278  and  _279
REMARK  117  A    between atoms: _288  and  _290
REMARK  118  A    between atoms: _290  and  _291
REMARK  119  A    between atoms: _290  and  _293
REMARK  120  A    between atoms: _293  and  _294
REMARK  121  A    between atoms: _299  and  _301
REMARK  122  A    between atoms: _301  and  _302
REMARK  123  A    between atoms: _301  and  _304
REMARK  124  A    between atoms: _304  and  _305
REMARK  125  A    between atoms: _305  and  _306
REMARK  126  A    between atoms: _306  and  _307
REMARK  127  A    between atoms: _316  and  _318
REMARK  128  A    between atoms: _318  and  _319
REMARK  129  A    between atoms: _318  and  _321
REMARK  130  A    between atoms: _321  and  _322
REMARK  131  A    between atoms: _325  and  _327
REMARK  132  A    between atoms: _327  and  _328
REMARK  133  A    between atoms: _327  and  _330
REMARK  134  A    between atoms: _330  and  _331
REMARK  135  A    between atoms: _334  and  _336
REMARK  136  A    between atoms: _336  and  _337
REMARK  137  A    between atoms: _336  and  _339
REMARK  138  A    between atoms: _339  and  _340
REMARK  139  A    between atoms: _343  and  _345
REMARK  140  A    between atoms: _345  and  _346
REMARK  141  A    between atoms: _345  and  _348
REMARK  142  A    between atoms: _348  and  _349
REMARK  143  A    between atoms: _352  and  _354
REMARK  144  A    between atoms: _354  and  _355
REMARK  145  A    between atoms: _357  and  _359
REMARK  146  A    between atoms: _359  and  _360
REMARK  147  A    between atoms: _363  and  _365
REMARK  148  A    between atoms: _365  and  _366
REMARK  149  A    between atoms: _365  and  _368
REMARK  150  A    between atoms: _368  and  _369
REMARK  151  A    between atoms: _372  and  _374
REMARK  152  A    between atoms: _374  and  _375
REMARK  153  A    between atoms: _374  and  _377
REMARK  154  A    between atoms: _377  and  _378
REMARK  155  A    between atoms: _381  and  _383
REMARK  156  A    between atoms: _383  and  _384
REMARK  157  A    between atoms: _383  and  _386
REMARK  158  A    between atoms: _386  and  _387
REMARK  159  A    between atoms: _390  and  _392
REMARK  160  A    between atoms: _392  and  _393
REMARK  161  A    between atoms: _392  and  _395
REMARK  162  A    between atoms: _398  and  _400
REMARK  163  A    between atoms: _400  and  _401
REMARK  164  A    between atoms: _400  and  _403
REMARK  165  A    between atoms: _403  and  _404
REMARK  166  A    between atoms: _407  and  _409
REMARK  167  A    between atoms: _409  and  _410
REMARK  168  A    between atoms: _409  and  _412
REMARK  169  A    between atoms: _412  and  _413
REMARK  170  A    between atoms: _413  and  _414
REMARK  171  A    between atoms: _414  and  _415
REMARK  172  A    between atoms: _415  and  _416
REMARK  173  A    between atoms: _420  and  _422
REMARK  174  A    between atoms: _422  and  _423
REMARK  175  A    between atoms: _422  and  _425
REMARK  176  A    between atoms: _425  and  _426
REMARK  177  A    between atoms: _426  and  _427
REMARK  178  A    between atoms: _429  and  _431
REMARK  179  A    between atoms: _431  and  _432
REMARK  180  A    between atoms: _431  and  _434
REMARK  181  A    between atoms: _434  and  _435
REMARK  182  A    between atoms: _438  and  _440
REMARK  183  A    between atoms: _440  and  _441
REMARK  184  A    between atoms: _443  and  _445
REMARK  185  A    between atoms: _445  and  _446
REMARK  186  A    between atoms: _448  and  _450
REMARK  187  A    between atoms: _450  and  _451
REMARK  188  A    between atoms: _450  and  _453
REMARK  189  A    between atoms: _456  and  _458
REMARK  190  A    between atoms: _458  and  _459
REMARK  191  A    between atoms: _461  and  _463
REMARK  192  A    between atoms: _463  and  _464
REMARK  193  A    between atoms: _466  and  _468
REMARK  194  A    between atoms: _468  and  _469
REMARK  195  A    between atoms: _468  and  _471
REMARK  196  A    between atoms: _471  and  _472
REMARK  197  A    between atoms: _478  and  _480
REMARK  198  A    between atoms: _480  and  _481
REMARK  199  A    between atoms: _480  and  _483
REMARK  200  A    between atoms: _483  and  _484
REMARK  201  A    between atoms: _487  and  _489
REMARK  202  A    between atoms: _489  and  _490
REMARK  203  A    between atoms: _489  and  _492
REMARK  204  A    between atoms: _495  and  _497
REMARK  205  A    between atoms: _497  and  _498
REMARK  206  A    between atoms: _497  and  _500
REMARK  207  A    between atoms: _500  and  _501
REMARK  208  A    between atoms: _504  and  _506
REMARK  209  A    between atoms: _506  and  _507
REMARK  210  A    between atoms: _506  and  _509
REMARK  211  A    between atoms: _509  and  _510
REMARK  212  A    between atoms: _514  and  _515
REMARK  213  A    between atoms: _520  and  _522
REMARK  214  A    between atoms: _522  and  _523
REMARK  215  A    between atoms: _522  and  _525
REMARK  216  A    between atoms: _528  and  _530
REMARK  217  A    between atoms: _530  and  _531
REMARK  218  A    between atoms: _530  and  _533
REMARK  219  A    between atoms: _533  and  _534
REMARK  220  A    between atoms: _539  and  _541
REMARK  221  A    between atoms: _541  and  _542
REMARK  222  A    between atoms: _541  and  _544
REMARK  223  A    between atoms: _544  and  _545
REMARK  224  A    between atoms: _548  and  _550
REMARK  225  A    between atoms: _550  and  _551
REMARK  226  A    between atoms: _550  and  _553
REMARK  227  A    between atoms: _553  and  _554
REMARK  228  A    between atoms: _557  and  _559
REMARK  229  A    between atoms: _559  and  _560
REMARK  230  A    between atoms: _562  and  _564
REMARK  231  A    between atoms: _564  and  _565
REMARK  232  A    between atoms: _564  and  _567
REMARK  233  A    between atoms: _567  and  _568
REMARK  234  A    between atoms: _568  and  _569
REMARK  235  A    between atoms: _569  and  _570
REMARK  236  A    between atoms: _579  and  _581
REMARK  237  A    between atoms: _581  and  _582
REMARK  238  A    between atoms: _581  and  _584
REMARK  239  A    between atoms: _584  and  _585
REMARK                            x       y       z     vdW  Elec       q    Type
REMARK                         _______ _______ _______ _____ _____    ______ ____
ROOT
ATOM      1  CA  LEU A   1      21.145  30.660   6.576  0.00  0.00    +0.133 C 
ENDROOT
BRANCH   1   2
ATOM      2  N   LEU A   1      20.428  31.877   6.946  0.00  0.00    -0.239 NA
ATOM      3  H   LEU A   1      19.797  31.858   7.772  0.00  0.00    +0.142 HD
ENDBRANCH   1   2
BRANCH   1   4
ATOM      4  C   LEU A   1      20.290  29.807   5.685  0.00  0.00    +0.224 C 
ATOM      5  O   LEU A   1      19.090  29.733   5.917  0.00  0.00    -0.287 OA
ENDBRANCH   1   4
BRANCH   1   6
ATOM      6  CB  LEU A   1      21.548  29.911   7.828  0.00  0.00    +0.025 C 
BRANCH   6   7
ATOM      7  CG  LEU A   1      22.232  30.742   8.923  0.00  0.00    +0.002 C 
ATOM      8  CD2 LEU A   1      22.492  29.865  10.138  0.00  0.00    +0.000 C 
ATOM      9  CD1 LEU A   1      23.493  31.369   8.415  0.00  0.00    +0.000 C 
ENDBRANCH   6   7
ENDBRANCH   1   6
TORSDOF 4
REMARK  Name = ../refined-set-2016/3nu5/3nu5_pocket.pdb
REMARK  239 active torsions:
REMARK  status: ('A' for Active; 'I' for Inactive)
REMARK    1  A    between atoms: _1  and  _3
REMARK    2  A    between atoms: _3  and  _4
REMARK    3  A    between atoms: _3  and  _6
REMARK    4  A    between atoms: _6  and  _7
REMARK    5  A    between atoms: _7  and  _8
REMARK    6  A    between atoms: _8  and  _9
REMARK    7  A    between atoms: _18  and  _20
REMARK    8  A    between atoms: _20  and  _21
REMARK    9  A    between atoms: _20  and  _23
REMARK   10  A    between atoms: _23  and  _24
REMARK   11  A    between atoms: _27  and  _29
REMARK   12  A    between atoms: _29  and  _30
REMARK   13  A    between atoms: _29  and  _32
REMARK   14  A    between atoms: _32  and  _33
REMARK   15  A    between atoms: _36  and  _38
REMARK   16  A    between atoms: _38  and  _39
REMARK   17  A    between atoms: _38  and  _41
REMARK   18  A    between atoms: _41  and  _42
REMARK   19  A    between atoms: _45  and  _47
REMARK   20  A    between atoms: _47  and  _48
REMARK   21  A    between atoms: _47  and  _50
REMARK   22  A    between atoms: _50  and  _51
REMARK   23  A    between atoms: _54  and  _56
REMARK   24  A    between atoms: _56  and  _57
REMARK   25  A    between atoms: _59  and  _61
REMARK   26  A    between atoms: _61  and  _62
REMARK   27  A    between atoms: _65  and  _67
REMARK   28  A    between atoms: _67  and  _68
REMARK   29  A    between atoms: _67  and  _70
REMARK   30  A    between atoms: _70  and  _71
REMARK   31  A    between atoms: _74  and  _76
REMARK   32  A    between atoms: _76  and  _77
REMARK   33  A    between atoms: _76  and  _79
REMARK   34  A    between atoms: _79  and  _80
REMARK   35  A    between atoms: _83  and  _85
REMARK   36  A    between atoms: _85  and  _86
REMARK   37  A    between atoms: _85  and  _88
REMARK   38  A    between atoms: _88  and  _89
REMARK   39  A    between atoms: _92  and  _94
REMARK   40  A    between atoms: _94  and  _95
REMARK   41  A    between atoms: _94  and  _97
REMARK   42  A    between atoms: _100  and  _102
REMARK   43  A    between atoms: _102  and  _103
REMARK   44  A    between atoms: _102  and  _105
REMARK   45  A    between atoms: _105  and  _106
REMARK   46  A    between atoms: _109  and  _111
REMARK   47  A    between atoms: _111  and  _112
REMARK   48  A    between atoms: _111  and  _114
REMARK   49  A    between atoms: _114  and  _115
REMARK   50  A    between atoms: _115  and  _116
REMARK   51  A    between atoms: _116  and  _117
REMARK   52  A    between atoms: _117  and  _118
REMARK   53  A    between atoms: _122  and  _124
REMARK   54  A    between atoms: _124  and  _125
REMARK   55  A    between atoms: _124  and  _127
REMARK   56  A    between atoms: _127  and  _128
REMARK   57  A    between atoms: _128  and  _129
REMARK   58  A    between atoms: _131  and  _133
REMARK   59  A    between atoms: _133  and  _134
REMARK   60  A    between atoms: _133  and  _136
REMARK   61  A    between atoms: _136  and  _137
REMARK   62  A    between atoms: _140  and  _142
REMARK   63  A    between atoms: _142  and  _143
REMARK   64  A    between atoms: _145  and  _147
REMARK   65  A    between atoms: _147  and  _148
REMARK   66  A    between atoms: _150  and  _152
REMARK   67  A    between atoms: _152  and  _153
REMARK   68  A    between atoms: _152  and  _155
REMARK   69  A    between atoms: _158  and  _160
REMARK   70  A    between atoms: _160  and  _161
REMARK   71  A    between atoms: _163  and  _165
REMARK   72  A    between atoms: _165  and  _166
REMARK   73  A    between atoms: _168  and  _170
REMARK   74  A    between atoms: _170  and  _171
REMARK   75  A    between atoms: _170  and  _173
REMARK   76  A    between atoms: _173  and  _174
REMARK   77  A    between atoms: _180  and  _182
REMARK   78  A    between atoms: _182  and  _183
REMARK   79  A    between atoms: _182  and  _185
REMARK   80  A    between atoms: _185  and  _186
REMARK   81  A    between atoms: _189  and  _191
REMARK   82  A    between atoms: _191  and  _192
REMARK   83  A    between atoms: _191  and  _194
REMARK   84  A    between atoms: _197  and  _199
REMARK   85  A    between atoms: _199  and  _200
REMARK   86  A    between atoms: _199  and  _202
REMARK   87  A    between atoms: _202  and  _203
REMARK   88  A    between atoms: _207  and  _208
REMARK   89  A    between atoms: _213  and  _215
REMARK   90  A    between atoms: _215  and  _216
REMARK   91  A    between atoms: _215  and  _218
REMARK   92  A    between atoms: _218  and  _219
REMARK   93  A    between atoms: _223  and  _224
REMARK   94  A    between atoms: _229  and  _231
REMARK   95  A    between atoms: _231  and  _232
REMARK   96  A    between atoms: _231  and  _234
REMARK   97  A    between atoms: _237  and  _239
REMARK   98  A    between atoms: _239  and  _240
REMARK   99  A    between atoms: _239  and  _242
REMARK  100  A    between atoms: _242  and  _243
REMARK  101  A    between atoms: _248  and  _250
REMARK  102  A    between atoms: _250  and  _251
REMARK  103  A    between atoms: _250  and  _253
REMARK  104  A    between atoms: _253  and  _254
REMARK  105  A    between atoms: _257  and  _259
REMARK  106  A    between atoms: _259  and  _260
REMARK  107  A    between atoms: _259  and  _262
REMARK  108  A    between atoms: _262  and  _263
REMARK  109  A    between atoms: _266  and  _268
REMARK  110  A    between atoms: _268  and  _269
REMARK  111  A    between atoms: _271  and  _273
REMARK  112  A    between atoms: _273  and  _274
REMARK  113  A    between atoms: _273  and  _276
REMARK  114  A    between atoms: _276  and  _277
REMARK  115  A    between atoms: _277  and  _278
REMARK  116  A    between atoms: _278  and  _279
REMARK  117  A    between atoms: _288  and  _290
REMARK  118  A    between atoms: _290  and  _291
REMARK  119  A    between atoms: _290  and  _293
REMARK  120  A    between atoms: _293  and  _294
REMARK  121  A    between atoms: _299  and  _301
REMARK  122  A    between atoms: _301  and  _302
REMARK  123  A    between atoms: _301  and  _304
REMARK  124  A    between atoms: _304  and  _305
REMARK  125  A    between atoms: _305  and  _306
REMARK  126  A    between atoms: _306  and  _307
REMARK  127  A    between atoms: _316  and  _318
REMARK  128  A    between atoms: _318  and  _319
REMARK  129  A    between atoms: _318  and  _321
REMARK  130  A    between atoms: _321  and  _322
REMARK  131  A    between atoms: _325  and  _327
REMARK  132  A    between atoms: _327  and  _328
REMARK  133  A    between atoms: _327  and  _330
REMARK  134  A    between atoms: _330  and  _331
REMARK  135  A    between atoms: _334  and  _336
REMARK  136  A    between atoms: _336  and  _337
REMARK  137  A    between atoms: _336  and  _339
REMARK  138  A    between atoms: _339  and  _340
REMARK  139  A    between atoms: _343  and  _345
REMARK  140  A    between atoms: _345  and  _346
REMARK  141  A    between atoms: _345  and  _348
REMARK  142  A    between atoms: _348  and  _349
REMARK  143  A    between atoms: _352  and  _354
REMARK  144  A    between atoms: _354  and  _355
REMARK  145  A    between atoms: _357  and  _359
REMARK  146  A    between atoms: _359  and  _360
REMARK  147  A    between atoms: _363  and  _365
REMARK  148  A    between atoms: _365  and  _366
REMARK  149  A    between atoms: _365  and  _368
REMARK  150  A    between atoms: _368  and  _369
REMARK  151  A    between atoms: _372  and  _374
REMARK  152  A    between atoms: _374  and  _375
REMARK  153  A    between atoms: _374  and  _377
REMARK  154  A    between atoms: _377  and  _378
REMARK  155  A    between atoms: _381  and  _383
REMARK  156  A    between atoms: _383  and  _384
REMARK  157  A    between atoms: _383  and  _386
REMARK  158  A    between atoms: _386  and  _387
REMARK  159  A    between atoms: _390  and  _392
REMARK  160  A    between atoms: _392  and  _393
REMARK  161  A    between atoms: _392  and  _395
REMARK  162  A    between atoms: _398  and  _400
REMARK  163  A    between atoms: _400  and  _401
REMARK  164  A    between atoms: _400  and  _403
REMARK  165  A    between atoms: _403  and  _404
REMARK  166  A    between atoms: _407  and  _409
REMARK  167  A    between atoms: _409  and  _410
REMARK  168  A    between atoms: _409  and  _412
REMARK  169  A    between atoms: _412  and  _413
REMARK  170  A    between atoms: _413  and  _414
REMARK  171  A    between atoms: _414  and  _415
REMARK  172  A    between atoms: _415  and  _416
REMARK  173  A    between atoms: _420  and  _422
REMARK  174  A    between atoms: _422  and  _423
REMARK  175  A    between atoms: _422  and  _425
REMARK  176  A    between atoms: _425  and  _426
REMARK  177  A    between atoms: _426  and  _427
REMARK  178  A    between atoms: _429  and  _431
REMARK  179  A    between atoms: _431  and  _432
REMARK  180  A    between atoms: _431  and  _434
REMARK  181  A    between atoms: _434  and  _435
REMARK  182  A    between atoms: _438  and  _440
REMARK  183  A    between atoms: _440  and  _441
REMARK  184  A    between atoms: _443  and  _445
REMARK  185  A    between atoms: _445  and  _446
REMARK  186  A    between atoms: _448  and  _450
REMARK  187  A    between atoms: _450  and  _451
REMARK  188  A    between atoms: _450  and  _453
REMARK  189  A    between atoms: _456  and  _458
REMARK  190  A    between atoms: _458  and  _459
REMARK  191  A    between atoms: _461  and  _463
REMARK  192  A    between atoms: _463  and  _464
REMARK  193  A    between atoms: _466  and  _468
REMARK  194  A    between atoms: _468  and  _469
REMARK  195  A    between atoms: _468  and  _471
REMARK  196  A    between atoms: _471  and  _472
REMARK  197  A    between atoms: _478  and  _480
REMARK  198  A    between atoms: _480  and  _481
REMARK  199  A    between atoms: _480  and  _483
REMARK  200  A    between atoms: _483  and  _484
REMARK  201  A    between atoms: _487  and  _489
REMARK  202  A    between atoms: _489  and  _490
REMARK  203  A    between atoms: _489  and  _492
REMARK  204  A    between atoms: _495  and  _497
REMARK  205  A    between atoms: _497  and  _498
REMARK  206  A    between atoms: _497  and  _500
REMARK  207  A    between atoms: _500  and  _501
REMARK  208  A    between atoms: _504  and  _506
REMARK  209  A    between atoms: _506  and  _507
REMARK  210  A    between atoms: _506  and  _509
REMARK  211  A    between atoms: _509  and  _510
REMARK  212  A    between atoms: _514  and  _515
REMARK  213  A    between atoms: _520  and  _522
REMARK  214  A    between atoms: _522  and  _523
REMARK  215  A    between atoms: _522  and  _525
REMARK  216  A    between atoms: _528  and  _530
REMARK  217  A    between atoms: _530  and  _531
REMARK  218  A    between atoms: _530  and  _533
REMARK  219  A    between atoms: _533  and  _534
REMARK  220  A    between atoms: _539  and  _541
REMARK  221  A    between atoms: _541  and  _542
REMARK  222  A    between atoms: _541  and  _544
REMARK  223  A    between atoms: _544  and  _545
REMARK  224  A    between atoms: _548  and  _550
REMARK  225  A    between atoms: _550  and  _551
REMARK  226  A    between atoms: _550  and  _553
REMARK  227  A    between atoms: _553  and  _554
REMARK  228  A    between atoms: _557  and  _559
REMARK  229  A    between atoms: _559  and  _560
REMARK  230  A    between atoms: _562  and  _564
REMARK  231  A    between atoms: _564  and  _565
REMARK  232  A    between atoms: _564  and  _567
REMARK  233  A    between atoms: _567  and  _568
REMARK  234  A    between atoms: _568  and  _569
REMARK  235  A    between atoms: _569  and  _570
REMARK  236  A    between atoms: _579  and  _581
REMARK  237  A    between atoms: _581  and  _582
REMARK  238  A    between atoms: _581  and  _584
REMARK  239  A    between atoms: _584  and  _585
REMARK                            x       y       z     vdW  Elec       q    Type
REMARK                         _______ _______ _______ _____ _____    ______ ____
ROOT
ATOM      1  CA  ILE A   6      13.075  28.379  11.260  0.00  0.00    +0.149 C 
ENDROOT
BRANCH   1   2
ATOM      2  C   ILE A   6      13.411  29.863  11.274  0.00  0.00    +0.241 C 
ATOM      3  N   ILE A   7      12.595  30.671  11.955  0.00  0.00    -0.297 N 
ATOM      4  H   ILE A   7      11.693  30.287  12.302  0.00  0.00    +0.150 HD
ATOM      5  O   ILE A   6      14.423  30.263  10.663  0.00  0.00    -0.273 OA
BRANCH   3   6
ATOM      6  CA  ILE A   7      12.907  32.052  12.232  0.00  0.00    +0.149 C 
BRANCH   6   7
ATOM      7  C   ILE A   7      13.527  32.085  13.634  0.00  0.00    +0.241 C 
ATOM      8  O   ILE A   7      12.888  31.730  14.624  0.00  0.00    -0.273 OA
ATOM      9  N   GLY A   8      14.792  32.423  13.697  0.00  0.00    -0.295 N 
ATOM     10  H   GLY A   8      15.290  32.684  12.822  0.00  0.00    +0.150 HD
BRANCH   9  11
ATOM     11  CA  GLY A   8      15.511  32.443  14.947  0.00  0.00    +0.176 C 
BRANCH  11  12
ATOM     12  C   GLY A   8      15.612  33.827  15.558  0.00  0.00    +0.243 C 
ATOM     13  N   ARG A   9      16.331  33.869  16.678  0.00  0.00    -0.297 N 
ATOM     14  H   ARG A   9      16.871  33.033  16.979  0.00  0.00    +0.150 HD
ATOM     15  O   GLY A   8      15.061  34.806  15.054  0.00  0.00    -0.273 OA
BRANCH  13  16
ATOM     16  CA  ARG A   9      16.363  35.080  17.482  0.00  0.00    +0.149 C 
BRANCH  16  17
ATOM     17  C   ARG A   9      16.848  36.295  16.709  0.00  0.00    +0.241 C 
ATOM     18  O   ARG A   9      16.426  37.413  17.002  0.00  0.00    -0.273 OA
ATOM     19  N   ASN A  10      17.784  36.110  15.765  0.00  0.00    -0.298 N 
ATOM     20  H   ASN A  10      18.113  35.151  15.533  0.00  0.00    +0.150 HD
BRANCH  19  21
ATOM     21  CA  ASN A  10      18.339  37.274  15.062  0.00  0.00    +0.146 C 
BRANCH  21  22
ATOM     22  C   ASN A  10      17.260  38.073  14.348  0.00  0.00    +0.227 C 
ATOM     23  O   ASN A  10      17.439  39.286  14.160  0.00  0.00    -0.286 OA
ENDBRANCH  21  22
BRANCH  21  24
ATOM     24  CB  ASN A  10      19.417  36.841  14.083  0.00  0.00    +0.112 C 
BRANCH  24  25
ATOM     25  CG  ASN A  10      18.936  36.109  12.861  0.00  0.00    +0.222 C 
ATOM     26  OD1 ASN A  10      18.133  35.157  12.899  0.00  0.00    -0.275 OA
ATOM     27  ND2 ASN A  10      19.366  36.607  11.701  0.00  0.00    -0.329 N 
ATOM     28 HD21 ASN A  10      20.036  37.402  11.693  0.00  0.00    +0.145 HD
ATOM     29 HD22 ASN A  10      19.031  36.200  10.804  0.00  0.00    +0.145 HD
ENDBRANCH  24  25
ENDBRANCH  21  24
ENDBRANCH  19  21
ENDBRANCH  16  17
BRANCH  16  30
ATOM     30  CB  ARG A   9      17.230  34.854  18.708  0.00  0.00    +0.033 C 
BRANCH  30  31
ATOM     31  CG  ARG A   9      16.595  33.879  19.694  0.00  0.00    +0.045 C 
BRANCH  31  32
ATOM     32  CD  ARG A   9      17.325  33.828  21.027  0.00  0.00    +0.174 C 
BRANCH  32  33
ATOM     33  NE  ARG A   9      18.715  33.440  20.844  0.00  0.00    -0.265 N 
ATOM     34  CZ  ARG A   9      19.813  34.180  20.807  0.00  0.00    +0.342 C 
ATOM     35  NH2 ARG A   9      19.787  35.488  20.993  0.00  0.00    -0.292 N 
ATOM     36 HH21 ARG A   9      18.883  35.969  21.176  0.00  0.00    +0.255 HD
ATOM     37 HH22 ARG A   9      20.670  36.036  20.957  0.00  0.00    +0.255 HD
ATOM     38  NH1 ARG A   9      20.989  33.612  20.594  0.00  0.00    -0.292 N 
ATOM     39 HH11 ARG A   9      21.850  34.194  20.565  0.00  0.00    +0.255 HD
ATOM     40 HH12 ARG A   9      21.052  32.583  20.455  0.00  0.00    +0.255 HD
ATOM     41  HE  ARG A   9      18.872  32.419  20.723  0.00  0.00    +0.259 HD
ENDBRANCH  32  33
ENDBRANCH  31  32
ENDBRANCH  30  31
ENDBRANCH  16  30
ENDBRANCH  13  16
ENDBRANCH  11  12
ENDBRANCH   9  11
ENDBRANCH   6   7
BRANCH   6  42
ATOM     42  CB  ILE A   7      11.698  32.985  12.201  0.00  0.00    +0.027 C 
ATOM     43  CG2 ILE A   7      12.114  34.415  12.525  0.00  0.00    +0.002 C 
BRANCH  42  44
ATOM     44  CG1 ILE A   7      10.943  32.893  10.880  0.00  0.00    +0.002 C 
ATOM     45  CD1 ILE A   7      11.828  33.175   9.667  0.00  0.00    +0.000 C 
ENDBRANCH  42  44
ENDBRANCH   6  42
ENDBRANCH   3   6
ENDBRANCH   1   2
BRANCH   1  48
ATOM     46  C   ASN A   5      11.978  27.167   9.465  0.00  0.00    +0.241 C 
ATOM     47  O   ASN A   5      10.942  27.022  10.123  0.00  0.00    -0.273 OA
ATOM     48  N   ILE A   6      13.007  27.859   9.911  0.00  0.00    -0.297 N 
ATOM     49  H   ILE A   6      13.803  28.039   9.267  0.00  0.00    +0.150 HD
BRANCH  46  50
ATOM     50  CA  ASN A   5      12.118  26.560   8.071  0.00  0.00    +0.158 C 
BRANCH  50  53
ATOM     51  C   VAL A   4      12.385  24.276   8.726  0.00  0.00    +0.241 C 
ATOM     52  O   VAL A   4      13.539  24.511   9.138  0.00  0.00    -0.273 OA
ATOM     53  N   ASN A   5      11.651  25.191   8.134  0.00  0.00    -0.297 N 
ATOM     54  H   ASN A   5      10.737  24.932   7.712  0.00  0.00    +0.150 HD
BRANCH  51  55
ATOM     55  CA  VAL A   4      11.817  22.878   8.895  0.00  0.00    +0.149 C 
BRANCH  55  57
ATOM     56  C   PRO A   3      12.766  20.723   8.244  0.00  0.00    +0.241 C 
ATOM     57  N   VAL A   4      12.898  21.917   8.736  0.00  0.00    -0.297 N 
ATOM     58  H   VAL A   4      13.849  22.209   9.040  0.00  0.00    +0.150 HD
ATOM     59  O   PRO A   3      11.696  20.277   7.836  0.00  0.00    -0.273 OA
BRANCH  56  65
ATOM     60  C   THR A   2      15.730  21.291   7.381  0.00  0.00    +0.246 C 
ATOM     61  N   PRO A   3      15.272  20.503   8.346  0.00  0.00    -0.272 N 
ATOM     62  CD  PRO A   3      15.948  20.126   9.597  0.00  0.00    +0.094 C 
ATOM     63  CG  PRO A   3      15.257  18.894   9.983  0.00  0.00    +0.024 C 
ATOM     64  CB  PRO A   3      13.921  18.887   9.378  0.00  0.00    +0.031 C 
ATOM     65  CA  PRO A   3      13.989  19.832   8.178  0.00  0.00    +0.152 C 
ATOM     66  O   THR A   2      15.092  21.453   6.332  0.00  0.00    -0.273 OA
BRANCH  60  67
ATOM     67  CA  THR A   2      17.019  22.035   7.575  0.00  0.00    +0.176 C 
BRANCH  67  70
ATOM     68  C   PRO A   1      18.407  21.015   5.827  0.00  0.00    +0.239 C 
ATOM     69  O   PRO A   1      18.495  19.983   6.519  0.00  0.00    -0.274 OA
ATOM     70  N   THR A   2      17.753  22.060   6.295  0.00  0.00    -0.295 N 
ATOM     71  H   THR A   2      17.755  22.939   5.739  0.00  0.00    +0.150 HD
BRANCH  68  73
ATOM     72  N   PRO A   1      19.941  22.292   4.346  0.00  0.00    -0.210 NA
ATOM     73  CA  PRO A   1      19.018  21.159   4.454  0.00  0.00    +0.149 C 
ATOM     74  CB  PRO A   1      19.900  19.966   4.067  0.00  0.00    +0.028 C 
ATOM     75  CG  PRO A   1      21.241  20.366   4.591  0.00  0.00    +0.021 C 
ATOM     76  CD  PRO A   1      21.331  21.863   4.355  0.00  0.00    +0.089 C 
ENDBRANCH  68  73
ENDBRANCH  67  70
BRANCH  67  77
ATOM     77  CB  THR A   2      16.787  23.458   8.060  0.00  0.00    +0.137 C 
ATOM     78  CG2 THR A   2      16.057  24.355   7.096  0.00  0.00    +0.034 C 
BRANCH  77  79
ATOM     79  OG1 THR A   2      16.015  23.352   9.258  0.00  0.00    -0.382 OA
ATOM     80  HG1 THR A   2      15.157  22.900   9.058  0.00  0.00    +0.210 HD
ENDBRANCH  77  79
ENDBRANCH  67  77
ENDBRANCH  60  67
ENDBRANCH  56  65
ENDBRANCH  55  57
BRANCH  55  81
ATOM     81  CB  VAL A   4      11.176  22.687  10.281  0.00  0.00    +0.027 C 
ATOM     82  CG2 VAL A   4      12.175  22.949  11.397  0.00  0.00    +0.002 C 
ATOM     83  CG1 VAL A   4       9.935  23.535  10.435  0.00  0.00    +0.002 C 
ENDBRANCH  55  81
ENDBRANCH  51  55
ENDBRANCH  50  53
BRANCH  50  84
ATOM     84  CB  ASN A   5      11.279  27.344   7.093  0.00  0.00    +0.114 C 
BRANCH  84  85
ATOM     85  CG  ASN A   5      11.386  26.809   5.667  0.00  0.00    +0.222 C 
ATOM     86  OD1 ASN A   5      12.464  26.453   5.243  0.00  0.00    -0.275 OA
ATOM     87  ND2 ASN A   5      10.255  26.781   4.997  0.00  0.00    -0.329 N 
ATOM     88 HD21 ASN A   5       9.376  27.109   5.446  0.00  0.00    +0.145 HD
ATOM     89 HD22 ASN A   5      10.239  26.431   4.018  0.00  0.00    +0.145 HD
ENDBRANCH  84  85
ENDBRANCH  50  84
ENDBRANCH  46  50
ENDBRANCH   1  48
BRANCH   1  90
ATOM     90  CB  ILE A   6      14.180  27.623  12.027  0.00  0.00    +0.027 C 
ATOM     91  CG2 ILE A   6      14.507  28.362  13.311  0.00  0.00    +0.002 C 
BRANCH  90  92
ATOM     92  CG1 ILE A   6      13.792  26.147  12.212  0.00  0.00    +0.002 C 
ATOM     93  CD1 ILE A   6      14.970  25.276  12.535  0.00  0.00    +0.000 C 
ENDBRANCH  90  92
ENDBRANCH   1  90
TORSDOF 33
REMARK  Name = ../refined-set-2016/3nu5/3nu5_pocket.pdb
REMARK  239 active torsions:
REMARK  status: ('A' for Active; 'I' for Inactive)
REMARK    1  A    between atoms: _1  and  _3
REMARK    2  A    between atoms: _3  and  _4
REMARK    3  A    between atoms: _3  and  _6
REMARK    4  A    between atoms: _6  and  _7
REMARK    5  A    between atoms: _7  and  _8
REMARK    6  A    between atoms: _8  and  _9
REMARK    7  A    between atoms: _18  and  _20
REMARK    8  A    between atoms: _20  and  _21
REMARK    9  A    between atoms: _20  and  _23
REMARK   10  A    between atoms: _23  and  _24
REMARK   11  A    between atoms: _27  and  _29
REMARK   12  A    between atoms: _29  and  _30
REMARK   13  A    between atoms: _29  and  _32
REMARK   14  A    between atoms: _32  and  _33
REMARK   15  A    between atoms: _36  and  _38
REMARK   16  A    between atoms: _38  and  _39
REMARK   17  A    between atoms: _38  and  _41
REMARK   18  A    between atoms: _41  and  _42
REMARK   19  A    between atoms: _45  and  _47
REMARK   20  A    between atoms: _47  and  _48
REMARK   21  A    between atoms: _47  and  _50
REMARK   22  A    between atoms: _50  and  _51
REMARK   23  A    between atoms: _54  and  _56
REMARK   24  A    between atoms: _56  and  _57
REMARK   25  A    between atoms: _59  and  _61
REMARK   26  A    between atoms: _61  and  _62
REMARK   27  A    between atoms: _65  and  _67
REMARK   28  A    between atoms: _67  and  _68
REMARK   29  A    between atoms: _67  and  _70
REMARK   30  A    between atoms: _70  and  _71
REMARK   31  A    between atoms: _74  and  _76
REMARK   32  A    between atoms: _76  and  _77
REMARK   33  A    between atoms: _76  and  _79
REMARK   34  A    between atoms: _79  and  _80
REMARK   35  A    between atoms: _83  and  _85
REMARK   36  A    between atoms: _85  and  _86
REMARK   37  A    between atoms: _85  and  _88
REMARK   38  A    between atoms: _88  and  _89
REMARK   39  A    between atoms: _92  and  _94
REMARK   40  A    between atoms: _94  and  _95
REMARK   41  A    between atoms: _94  and  _97
REMARK   42  A    between atoms: _100  and  _102
REMARK   43  A    between atoms: _102  and  _103
REMARK   44  A    between atoms: _102  and  _105
REMARK   45  A    between atoms: _105  and  _106
REMARK   46  A    between atoms: _109  and  _111
REMARK   47  A    between atoms: _111  and  _112
REMARK   48  A    between atoms: _111  and  _114
REMARK   49  A    between atoms: _114  and  _115
REMARK   50  A    between atoms: _115  and  _116
REMARK   51  A    between atoms: _116  and  _117
REMARK   52  A    between atoms: _117  and  _118
REMARK   53  A    between atoms: _122  and  _124
REMARK   54  A    between atoms: _124  and  _125
REMARK   55  A    between atoms: _124  and  _127
REMARK   56  A    between atoms: _127  and  _128
REMARK   57  A    between atoms: _128  and  _129
REMARK   58  A    between atoms: _131  and  _133
REMARK   59  A    between atoms: _133  and  _134
REMARK   60  A    between atoms: _133  and  _136
REMARK   61  A    between atoms: _136  and  _137
REMARK   62  A    between atoms: _140  and  _142
REMARK   63  A    between atoms: _142  and  _143
REMARK   64  A    between atoms: _145  and  _147
REMARK   65  A    between atoms: _147  and  _148
REMARK   66  A    between atoms: _150  and  _152
REMARK   67  A    between atoms: _152  and  _153
REMARK   68  A    between atoms: _152  and  _155
REMARK   69  A    between atoms: _158  and  _160
REMARK   70  A    between atoms: _160  and  _161
REMARK   71  A    between atoms: _163  and  _165
REMARK   72  A    between atoms: _165  and  _166
REMARK   73  A    between atoms: _168  and  _170
REMARK   74  A    between atoms: _170  and  _171
REMARK   75  A    between atoms: _170  and  _173
REMARK   76  A    between atoms: _173  and  _174
REMARK   77  A    between atoms: _180  and  _182
REMARK   78  A    between atoms: _182  and  _183
REMARK   79  A    between atoms: _182  and  _185
REMARK   80  A    between atoms: _185  and  _186
REMARK   81  A    between atoms: _189  and  _191
REMARK   82  A    between atoms: _191  and  _192
REMARK   83  A    between atoms: _191  and  _194
REMARK   84  A    between atoms: _197  and  _199
REMARK   85  A    between atoms: _199  and  _200
REMARK   86  A    between atoms: _199  and  _202
REMARK   87  A    between atoms: _202  and  _203
REMARK   88  A    between atoms: _207  and  _208
REMARK   89  A    between atoms: _213  and  _215
REMARK   90  A    between atoms: _215  and  _216
REMARK   91  A    between atoms: _215  and  _218
REMARK   92  A    between atoms: _218  and  _219
REMARK   93  A    between atoms: _223  and  _224
REMARK   94  A    between atoms: _229  and  _231
REMARK   95  A    between atoms: _231  and  _232
REMARK   96  A    between atoms: _231  and  _234
REMARK   97  A    between atoms: _237  and  _239
REMARK   98  A    between atoms: _239  and  _240
REMARK   99  A    between atoms: _239  and  _242
REMARK  100  A    between atoms: _242  and  _243
REMARK  101  A    between atoms: _248  and  _250
REMARK  102  A    between atoms: _250  and  _251
REMARK  103  A    between atoms: _250  and  _253
REMARK  104  A    between atoms: _253  and  _254
REMARK  105  A    between atoms: _257  and  _259
REMARK  106  A    between atoms: _259  and  _260
REMARK  107  A    between atoms: _259  and  _262
REMARK  108  A    between atoms: _262  and  _263
REMARK  109  A    between atoms: _266  and  _268
REMARK  110  A    between atoms: _268  and  _269
REMARK  111  A    between atoms: _271  and  _273
REMARK  112  A    between atoms: _273  and  _274
REMARK  113  A    between atoms: _273  and  _276
REMARK  114  A    between atoms: _276  and  _277
REMARK  115  A    between atoms: _277  and  _278
REMARK  116  A    between atoms: _278  and  _279
REMARK  117  A    between atoms: _288  and  _290
REMARK  118  A    between atoms: _290  and  _291
REMARK  119  A    between atoms: _290  and  _293
REMARK  120  A    between atoms: _293  and  _294
REMARK  121  A    between atoms: _299  and  _301
REMARK  122  A    between atoms: _301  and  _302
REMARK  123  A    between atoms: _301  and  _304
REMARK  124  A    between atoms: _304  and  _305
REMARK  125  A    between atoms: _305  and  _306
REMARK  126  A    between atoms: _306  and  _307
REMARK  127  A    between atoms: _316  and  _318
REMARK  128  A    between atoms: _318  and  _319
REMARK  129  A    between atoms: _318  and  _321
REMARK  130  A    between atoms: _321  and  _322
REMARK  131  A    between atoms: _325  and  _327
REMARK  132  A    between atoms: _327  and  _328
REMARK  133  A    between atoms: _327  and  _330
REMARK  134  A    between atoms: _330  and  _331
REMARK  135  A    between atoms: _334  and  _336
REMARK  136  A    between atoms: _336  and  _337
REMARK  137  A    between atoms: _336  and  _339
REMARK  138  A    between atoms: _339  and  _340
REMARK  139  A    between atoms: _343  and  _345
REMARK  140  A    between atoms: _345  and  _346
REMARK  141  A    between atoms: _345  and  _348
REMARK  142  A    between atoms: _348  and  _349
REMARK  143  A    between atoms: _352  and  _354
REMARK  144  A    between atoms: _354  and  _355
REMARK  145  A    between atoms: _357  and  _359
REMARK  146  A    between atoms: _359  and  _360
REMARK  147  A    between atoms: _363  and  _365
REMARK  148  A    between atoms: _365  and  _366
REMARK  149  A    between atoms: _365  and  _368
REMARK  150  A    between atoms: _368  and  _369
REMARK  151  A    between atoms: _372  and  _374
REMARK  152  A    between atoms: _374  and  _375
REMARK  153  A    between atoms: _374  and  _377
REMARK  154  A    between atoms: _377  and  _378
REMARK  155  A    between atoms: _381  and  _383
REMARK  156  A    between atoms: _383  and  _384
REMARK  157  A    between atoms: _383  and  _386
REMARK  158  A    between atoms: _386  and  _387
REMARK  159  A    between atoms: _390  and  _392
REMARK  160  A    between atoms: _392  and  _393
REMARK  161  A    between atoms: _392  and  _395
REMARK  162  A    between atoms: _398  and  _400
REMARK  163  A    between atoms: _400  and  _401
REMARK  164  A    between atoms: _400  and  _403
REMARK  165  A    between atoms: _403  and  _404
REMARK  166  A    between atoms: _407  and  _409
REMARK  167  A    between atoms: _409  and  _410
REMARK  168  A    between atoms: _409  and  _412
REMARK  169  A    between atoms: _412  and  _413
REMARK  170  A    between atoms: _413  and  _414
REMARK  171  A    between atoms: _414  and  _415
REMARK  172  A    between atoms: _415  and  _416
REMARK  173  A    between atoms: _420  and  _422
REMARK  174  A    between atoms: _422  and  _423
REMARK  175  A    between atoms: _422  and  _425
REMARK  176  A    between atoms: _425  and  _426
REMARK  177  A    between atoms: _426  and  _427
REMARK  178  A    between atoms: _429  and  _431
REMARK  179  A    between atoms: _431  and  _432
REMARK  180  A    between atoms: _431  and  _434
REMARK  181  A    between atoms: _434  and  _435
REMARK  182  A    between atoms: _438  and  _440
REMARK  183  A    between atoms: _440  and  _441
REMARK  184  A    between atoms: _443  and  _445
REMARK  185  A    between atoms: _445  and  _446
REMARK  186  A    between atoms: _448  and  _450
REMARK  187  A    between atoms: _450  and  _451
REMARK  188  A    between atoms: _450  and  _453
REMARK  189  A    between atoms: _456  and  _458
REMARK  190  A    between atoms: _458  and  _459
REMARK  191  A    between atoms: _461  and  _463
REMARK  192  A    between atoms: _463  and  _464
REMARK  193  A    between atoms: _466  and  _468
REMARK  194  A    between atoms: _468  and  _469
REMARK  195  A    between atoms: _468  and  _471
REMARK  196  A    between atoms: _471  and  _472
REMARK  197  A    between atoms: _478  and  _480
REMARK  198  A    between atoms: _480  and  _481
REMARK  199  A    between atoms: _480  and  _483
REMARK  200  A    between atoms: _483  and  _484
REMARK  201  A    between atoms: _487  and  _489
REMARK  202  A    between atoms: _489  and  _490
REMARK  203  A    between atoms: _489  and  _492
REMARK  204  A    between atoms: _495  and  _497
REMARK  205  A    between atoms: _497  and  _498
REMARK  206  A    between atoms: _497  and  _500
REMARK  207  A    between atoms: _500  and  _501
REMARK  208  A    between atoms: _504  and  _506
REMARK  209  A    between atoms: _506  and  _507
REMARK  210  A    between atoms: _506  and  _509
REMARK  211  A    between atoms: _509  and  _510
REMARK  212  A    between atoms: _514  and  _515
REMARK  213  A    between atoms: _520  and  _522
REMARK  214  A    between atoms: _522  and  _523
REMARK  215  A    between atoms: _522  and  _525
REMARK  216  A    between atoms: _528  and  _530
REMARK  217  A    between atoms: _530  and  _531
REMARK  218  A    between atoms: _530  and  _533
REMARK  219  A    between atoms: _533  and  _534
REMARK  220  A    between atoms: _539  and  _541
REMARK  221  A    between atoms: _541  and  _542
REMARK  222  A    between atoms: _541  and  _544
REMARK  223  A    between atoms: _544  and  _545
REMARK  224  A    between atoms: _548  and  _550
REMARK  225  A    between atoms: _550  and  _551
REMARK  226  A    between atoms: _550  and  _553
REMARK  227  A    between atoms: _553  and  _554
REMARK  228  A    between atoms: _557  and  _559
REMARK  229  A    between atoms: _559  and  _560
REMARK  230  A    between atoms: _562  and  _564
REMARK  231  A    between atoms: _564  and  _565
REMARK  232  A    between atoms: _564  and  _567
REMARK  233  A    between atoms: _567  and  _568
REMARK  234  A    between atoms: _568  and  _569
REMARK  235  A    between atoms: _569  and  _570
REMARK  236  A    between atoms: _579  and  _581
REMARK  237  A    between atoms: _581  and  _582
REMARK  238  A    between atoms: _581  and  _584
REMARK  239  A    between atoms: _584  and  _585
REMARK                            x       y       z     vdW  Elec       q    Type
REMARK                         _______ _______ _______ _____ _____    ______ ____
ROOT
ATOM      1  NE  ARG A   1      22.269  29.626  22.331  0.00  0.00    -0.265 N 
ATOM      2  CZ  ARG A   1      22.721  28.396  22.155  0.00  0.00    +0.342 C 
ATOM      3  NH2 ARG A   1      22.631  27.522  23.155  0.00  0.00    -0.292 N 
ATOM      4 HH21 ARG A   1      22.209  27.810  24.061  0.00  0.00    +0.255 HD
ATOM      5 HH22 ARG A   1      22.983  26.551  23.030  0.00  0.00    +0.255 HD
ATOM      6  NH1 ARG A   1      23.237  28.027  20.986  0.00  0.00    -0.292 N 
ATOM      7 HH11 ARG A   1      23.590  27.057  20.856  0.00  0.00    +0.255 HD
ATOM      8 HH12 ARG A   1      23.287  28.708  20.202  0.00  0.00    +0.255 HD
ATOM      9  HE  ARG A   1      22.328  30.292  21.534  0.00  0.00    +0.259 HD
ENDROOT
BRANCH   1  10
ATOM     10  CD  ARG A   1      21.696  30.095  23.577  0.00  0.00    +0.174 C 
BRANCH  10  11
ATOM     11  CG  ARG A   1      21.241  31.551  23.462  0.00  0.00    +0.045 C 
BRANCH  11  12
ATOM     12  CB  ARG A   1      20.491  31.948  24.738  0.00  0.00    +0.029 C 
BRANCH  12  13
ATOM     13  CA  ARG A   1      19.515  33.123  24.580  0.00  0.00    +0.133 C 
BRANCH  13  14
ATOM     14  N   ARG A   1      20.263  34.367  24.420  0.00  0.00    -0.239 NA
ATOM     15  H   ARG A   1      21.303  34.352  24.429  0.00  0.00    +0.142 HD
ENDBRANCH  13  14
BRANCH  13  16
ATOM     16  C   ARG A   1      18.610  33.178  25.805  0.00  0.00    +0.224 C 
ATOM     17  O   ARG A   1      19.081  33.651  26.839  0.00  0.00    -0.287 OA
ENDBRANCH  13  16
ENDBRANCH  12  13
ENDBRANCH  11  12
ENDBRANCH  10  11
ENDBRANCH   1  10
TORSDOF 6
REMARK  Name = ../refined-set-2016/3nu5/3nu5_pocket.pdb
REMARK  239 active torsions:
REMARK  status: ('A' for Active; 'I' for Inactive)
REMARK    1  A    between atoms: _1  and  _3
REMARK    2  A    between atoms: _3  and  _4
REMARK    3  A    between atoms: _3  and  _6
REMARK    4  A    between atoms: _6  and  _7
REMARK    5  A    between atoms: _7  and  _8
REMARK    6  A    between atoms: _8  and  _9
REMARK    7  A    between atoms: _18  and  _20
REMARK    8  A    between atoms: _20  and  _21
REMARK    9  A    between atoms: _20  and  _23
REMARK   10  A    between atoms: _23  and  _24
REMARK   11  A    between atoms: _27  and  _29
REMARK   12  A    between atoms: _29  and  _30
REMARK   13  A    between atoms: _29  and  _32
REMARK   14  A    between atoms: _32  and  _33
REMARK   15  A    between atoms: _36  and  _38
REMARK   16  A    between atoms: _38  and  _39
REMARK   17  A    between atoms: _38  and  _41
REMARK   18  A    between atoms: _41  and  _42
REMARK   19  A    between atoms: _45  and  _47
REMARK   20  A    between atoms: _47  and  _48
REMARK   21  A    between atoms: _47  and  _50
REMARK   22  A    between atoms: _50  and  _51
REMARK   23  A    between atoms: _54  and  _56
REMARK   24  A    between atoms: _56  and  _57
REMARK   25  A    between atoms: _59  and  _61
REMARK   26  A    between atoms: _61  and  _62
REMARK   27  A    between atoms: _65  and  _67
REMARK   28  A    between atoms: _67  and  _68
REMARK   29  A    between atoms: _67  and  _70
REMARK   30  A    between atoms: _70  and  _71
REMARK   31  A    between atoms: _74  and  _76
REMARK   32  A    between atoms: _76  and  _77
REMARK   33  A    between atoms: _76  and  _79
REMARK   34  A    between atoms: _79  and  _80
REMARK   35  A    between atoms: _83  and  _85
REMARK   36  A    between atoms: _85  and  _86
REMARK   37  A    between atoms: _85  and  _88
REMARK   38  A    between atoms: _88  and  _89
REMARK   39  A    between atoms: _92  and  _94
REMARK   40  A    between atoms: _94  and  _95
REMARK   41  A    between atoms: _94  and  _97
REMARK   42  A    between atoms: _100  and  _102
REMARK   43  A    between atoms: _102  and  _103
REMARK   44  A    between atoms: _102  and  _105
REMARK   45  A    between atoms: _105  and  _106
REMARK   46  A    between atoms: _109  and  _111
REMARK   47  A    between atoms: _111  and  _112
REMARK   48  A    between atoms: _111  and  _114
REMARK   49  A    between atoms: _114  and  _115
REMARK   50  A    between atoms: _115  and  _116
REMARK   51  A    between atoms: _116  and  _117
REMARK   52  A    between atoms: _117  and  _118
REMARK   53  A    between atoms: _122  and  _124
REMARK   54  A    between atoms: _124  and  _125
REMARK   55  A    between atoms: _124  and  _127
REMARK   56  A    between atoms: _127  and  _128
REMARK   57  A    between atoms: _128  and  _129
REMARK   58  A    between atoms: _131  and  _133
REMARK   59  A    between atoms: _133  and  _134
REMARK   60  A    between atoms: _133  and  _136
REMARK   61  A    between atoms: _136  and  _137
REMARK   62  A    between atoms: _140  and  _142
REMARK   63  A    between atoms: _142  and  _143
REMARK   64  A    between atoms: _145  and  _147
REMARK   65  A    between atoms: _147  and  _148
REMARK   66  A    between atoms: _150  and  _152
REMARK   67  A    between atoms: _152  and  _153
REMARK   68  A    between atoms: _152  and  _155
REMARK   69  A    between atoms: _158  and  _160
REMARK   70  A    between atoms: _160  and  _161
REMARK   71  A    between atoms: _163  and  _165
REMARK   72  A    between atoms: _165  and  _166
REMARK   73  A    between atoms: _168  and  _170
REMARK   74  A    between atoms: _170  and  _171
REMARK   75  A    between atoms: _170  and  _173
REMARK   76  A    between atoms: _173  and  _174
REMARK   77  A    between atoms: _180  and  _182
REMARK   78  A    between atoms: _182  and  _183
REMARK   79  A    between atoms: _182  and  _185
REMARK   80  A    between atoms: _185  and  _186
REMARK   81  A    between atoms: _189  and  _191
REMARK   82  A    between atoms: _191  and  _192
REMARK   83  A    between atoms: _191  and  _194
REMARK   84  A    between atoms: _197  and  _199
REMARK   85  A    between atoms: _199  and  _200
REMARK   86  A    between atoms: _199  and  _202
REMARK   87  A    between atoms: _202  and  _203
REMARK   88  A    between atoms: _207  and  _208
REMARK   89  A    between atoms: _213  and  _215
REMARK   90  A    between atoms: _215  and  _216
REMARK   91  A    between atoms: _215  and  _218
REMARK   92  A    between atoms: _218  and  _219
REMARK   93  A    between atoms: _223  and  _224
REMARK   94  A    between atoms: _229  and  _231
REMARK   95  A    between atoms: _231  and  _232
REMARK   96  A    between atoms: _231  and  _234
REMARK   97  A    between atoms: _237  and  _239
REMARK   98  A    between atoms: _239  and  _240
REMARK   99  A    between atoms: _239  and  _242
REMARK  100  A    between atoms: _242  and  _243
REMARK  101  A    between atoms: _248  and  _250
REMARK  102  A    between atoms: _250  and  _251
REMARK  103  A    between atoms: _250  and  _253
REMARK  104  A    between atoms: _253  and  _254
REMARK  105  A    between atoms: _257  and  _259
REMARK  106  A    between atoms: _259  and  _260
REMARK  107  A    between atoms: _259  and  _262
REMARK  108  A    between atoms: _262  and  _263
REMARK  109  A    between atoms: _266  and  _268
REMARK  110  A    between atoms: _268  and  _269
REMARK  111  A    between atoms: _271  and  _273
REMARK  112  A    between atoms: _273  and  _274
REMARK  113  A    between atoms: _273  and  _276
REMARK  114  A    between atoms: _276  and  _277
REMARK  115  A    between atoms: _277  and  _278
REMARK  116  A    between atoms: _278  and  _279
REMARK  117  A    between atoms: _288  and  _290
REMARK  118  A    between atoms: _290  and  _291
REMARK  119  A    between atoms: _290  and  _293
REMARK  120  A    between atoms: _293  and  _294
REMARK  121  A    between atoms: _299  and  _301
REMARK  122  A    between atoms: _301  and  _302
REMARK  123  A    between atoms: _301  and  _304
REMARK  124  A    between atoms: _304  and  _305
REMARK  125  A    between atoms: _305  and  _306
REMARK  126  A    between atoms: _306  and  _307
REMARK  127  A    between atoms: _316  and  _318
REMARK  128  A    between atoms: _318  and  _319
REMARK  129  A    between atoms: _318  and  _321
REMARK  130  A    between atoms: _321  and  _322
REMARK  131  A    between atoms: _325  and  _327
REMARK  132  A    between atoms: _327  and  _328
REMARK  133  A    between atoms: _327  and  _330
REMARK  134  A    between atoms: _330  and  _331
REMARK  135  A    between atoms: _334  and  _336
REMARK  136  A    between atoms: _336  and  _337
REMARK  137  A    between atoms: _336  and  _339
REMARK  138  A    between atoms: _339  and  _340
REMARK  139  A    between atoms: _343  and  _345
REMARK  140  A    between atoms: _345  and  _346
REMARK  141  A    between atoms: _345  and  _348
REMARK  142  A    between atoms: _348  and  _349
REMARK  143  A    between atoms: _352  and  _354
REMARK  144  A    between atoms: _354  and  _355
REMARK  145  A    between atoms: _357  and  _359
REMARK  146  A    between atoms: _359  and  _360
REMARK  147  A    between atoms: _363  and  _365
REMARK  148  A    between atoms: _365  and  _366
REMARK  149  A    between atoms: _365  and  _368
REMARK  150  A    between atoms: _368  and  _369
REMARK  151  A    between atoms: _372  and  _374
REMARK  152  A    between atoms: _374  and  _375
REMARK  153  A    between atoms: _374  and  _377
REMARK  154  A    between atoms: _377  and  _378
REMARK  155  A    between atoms: _381  and  _383
REMARK  156  A    between atoms: _383  and  _384
REMARK  157  A    between atoms: _383  and  _386
REMARK  158  A    between atoms: _386  and  _387
REMARK  159  A    between atoms: _390  and  _392
REMARK  160  A    between atoms: _392  and  _393
REMARK  161  A    between atoms: _392  and  _395
REMARK  162  A    between atoms: _398  and  _400
REMARK  163  A    between atoms: _400  and  _401
REMARK  164  A    between atoms: _400  and  _403
REMARK  165  A    between atoms: _403  and  _404
REMARK  166  A    between atoms: _407  and  _409
REMARK  167  A    between atoms: _409  and  _410
REMARK  168  A    between atoms: _409  and  _412
REMARK  169  A    between atoms: _412  and  _413
REMARK  170  A    between atoms: _413  and  _414
REMARK  171  A    between atoms: _414  and  _415
REMARK  172  A    between atoms: _415  and  _416
REMARK  173  A    between atoms: _420  and  _422
REMARK  174  A    between atoms: _422  and  _423
REMARK  175  A    between atoms: _422  and  _425
REMARK  176  A    between atoms: _425  and  _426
REMARK  177  A    between atoms: _426  and  _427
REMARK  178  A    between atoms: _429  and  _431
REMARK  179  A    between atoms: _431  and  _432
REMARK  180  A    between atoms: _431  and  _434
REMARK  181  A    between atoms: _434  and  _435
REMARK  182  A    between atoms: _438  and  _440
REMARK  183  A    between atoms: _440  and  _441
REMARK  184  A    between atoms: _443  and  _445
REMARK  185  A    between atoms: _445  and  _446
REMARK  186  A    between atoms: _448  and  _450
REMARK  187  A    between atoms: _450  and  _451
REMARK  188  A    between atoms: _450  and  _453
REMARK  189  A    between atoms: _456  and  _458
REMARK  190  A    between atoms: _458  and  _459
REMARK  191  A    between atoms: _461  and  _463
REMARK  192  A    between atoms: _463  and  _464
REMARK  193  A    between atoms: _466  and  _468
REMARK  194  A    between atoms: _468  and  _469
REMARK  195  A    between atoms: _468  and  _471
REMARK  196  A    between atoms: _471  and  _472
REMARK  197  A    between atoms: _478  and  _480
REMARK  198  A    between atoms: _480  and  _481
REMARK  199  A    between atoms: _480  and  _483
REMARK  200  A    between atoms: _483  and  _484
REMARK  201  A    between atoms: _487  and  _489
REMARK  202  A    between atoms: _489  and  _490
REMARK  203  A    between atoms: _489  and  _492
REMARK  204  A    between atoms: _495  and  _497
REMARK  205  A    between atoms: _497  and  _498
REMARK  206  A    between atoms: _497  and  _500
REMARK  207  A    between atoms: _500  and  _501
REMARK  208  A    between atoms: _504  and  _506
REMARK  209  A    between atoms: _506  and  _507
REMARK  210  A    between atoms: _506  and  _509
REMARK  211  A    between atoms: _509  and  _510
REMARK  212  A    between atoms: _514  and  _515
REMARK  213  A    between atoms: _520  and  _522
REMARK  214  A    between atoms: _522  and  _523
REMARK  215  A    between atoms: _522  and  _525
REMARK  216  A    between atoms: _528  and  _530
REMARK  217  A    between atoms: _530  and  _531
REMARK  218  A    between atoms: _530  and  _533
REMARK  219  A    between atoms: _533  and  _534
REMARK  220  A    between atoms: _539  and  _541
REMARK  221  A    between atoms: _541  and  _542
REMARK  222  A    between atoms: _541  and  _544
REMARK  223  A    between atoms: _544  and  _545
REMARK  224  A    between atoms: _548  and  _550
REMARK  225  A    between atoms: _550  and  _551
REMARK  226  A    between atoms: _550  and  _553
REMARK  227  A    between atoms: _553  and  _554
REMARK  228  A    between atoms: _557  and  _559
REMARK  229  A    between atoms: _559  and  _560
REMARK  230  A    between atoms: _562  and  _564
REMARK  231  A    between atoms: _564  and  _565
REMARK  232  A    between atoms: _564  and  _567
REMARK  233  A    between atoms: _567  and  _568
REMARK  234  A    between atoms: _568  and  _569
REMARK  235  A    between atoms: _569  and  _570
REMARK  236  A    between atoms: _579  and  _581
REMARK  237  A    between atoms: _581  and  _582
REMARK  238  A    between atoms: _581  and  _584
REMARK  239  A    between atoms: _584  and  _585
REMARK                            x       y       z     vdW  Elec       q    Type
REMARK                         _______ _______ _______ _____ _____    ______ ____
ROOT
ATOM      1  C   ALA A   6       9.607  21.685  20.956  0.00  0.00    +0.241 C 
ATOM      2  O   ALA A   6       8.973  22.281  21.843  0.00  0.00    -0.273 OA
ATOM      3  N   ASP A   7       9.158  20.577  20.337  0.00  0.00    -0.297 N 
ATOM      4  H   ASP A   7       9.693  20.124  19.569  0.00  0.00    +0.150 HD
ENDROOT
BRANCH   1   5
ATOM      5  CA  ALA A   6      10.969  22.184  20.524  0.00  0.00    +0.149 C 
ATOM      6  CB  ALA A   6      11.965  22.144  21.694  0.00  0.00    +0.031 C 
BRANCH   5   8
ATOM      7  C   GLY A   5      10.876  23.862  18.735  0.00  0.00    +0.243 C 
ATOM      8  N   ALA A   6      10.871  23.550  20.015  0.00  0.00    -0.297 N 
ATOM      9  H   ALA A   6      10.792  24.324  20.706  0.00  0.00    +0.150 HD
ATOM     10  O   GLY A   5      10.997  23.027  17.847  0.00  0.00    -0.273 OA
BRANCH   7  11
ATOM     11  CA  GLY A   5      10.734  25.313  18.364  0.00  0.00    +0.176 C 
BRANCH  11  14
ATOM     12  C   THR A   4       9.432  26.473  20.019  0.00  0.00    +0.243 C 
ATOM     13  O   THR A   4       8.377  25.983  19.601  0.00  0.00    -0.273 OA
ATOM     14  N   GLY A   5      10.625  26.223  19.483  0.00  0.00    -0.295 N 
ATOM     15  H   GLY A   5      11.476  26.681  19.868  0.00  0.00    +0.150 HD
BRANCH  12  16
ATOM     16  CA  THR A   4       9.405  27.385  21.237  0.00  0.00    +0.176 C 
BRANCH  16  19
ATOM     17  C   ASP A   3      11.253  26.496  22.488  0.00  0.00    +0.241 C 
ATOM     18  O   ASP A   3      10.736  25.385  22.510  0.00  0.00    -0.273 OA
ATOM     19  N   THR A   4      10.704  27.532  21.862  0.00  0.00    -0.295 N 
ATOM     20  H   THR A   4      11.204  28.443  21.821  0.00  0.00    +0.150 HD
BRANCH  17  21
ATOM     21  CA  ASP A   3      12.583  26.735  23.156  0.00  0.00    +0.160 C 
BRANCH  21  23
ATOM     22  C   LEU A   2      13.038  28.074  25.148  0.00  0.00    +0.241 C 
ATOM     23  N   ASP A   3      12.489  27.017  24.588  0.00  0.00    -0.297 N 
ATOM     24  H   ASP A   3      11.964  26.352  25.191  0.00  0.00    +0.150 HD
ATOM     25  O   LEU A   2      13.456  29.040  24.529  0.00  0.00    -0.273 OA
BRANCH  22  26
ATOM     26  CA  LEU A   2      13.197  28.101  26.644  0.00  0.00    +0.149 C 
BRANCH  26  28
ATOM     27  C   LEU A   1      15.306  27.000  26.969  0.00  0.00    +0.238 C 
ATOM     28  N   LEU A   2      14.609  28.120  27.009  0.00  0.00    -0.297 N 
ATOM     29  H   LEU A   2      15.063  29.010  27.299  0.00  0.00    +0.150 HD
ATOM     30  O   LEU A   1      14.817  25.885  26.714  0.00  0.00    -0.274 OA
BRANCH  27  31
ATOM     31  CA  LEU A   1      16.805  27.102  27.190  0.00  0.00    +0.145 C 
BRANCH  31  32
ATOM     32  N   LEU A   1      17.254  26.199  28.223  0.00  0.00    -0.238 NA
ATOM     33  H   LEU A   1      17.460  25.220  27.941  0.00  0.00    +0.142 HD
ENDBRANCH  31  32
BRANCH  31  34
ATOM     34  CB  LEU A   1      17.584  26.698  25.924  0.00  0.00    +0.026 C 
BRANCH  34  35
ATOM     35  CG  LEU A   1      17.394  27.449  24.659  0.00  0.00    +0.002 C 
ATOM     36  CD2 LEU A   1      17.930  28.871  24.855  0.00  0.00    +0.000 C 
ATOM     37  CD1 LEU A   1      18.094  26.745  23.499  0.00  0.00    +0.000 C 
ENDBRANCH  34  35
ENDBRANCH  31  34
ENDBRANCH  27  31
ENDBRANCH  26  28
BRANCH  26  38
ATOM     38  CB  LEU A   2      12.499  29.318  27.212  0.00  0.00    +0.029 C 
BRANCH  38  39
ATOM     39  CG  LEU A   2      12.636  29.478  28.743  0.00  0.00    +0.002 C 
ATOM     40  CD2 LEU A   2      12.167  28.259  29.479  0.00  0.00    +0.000 C 
ATOM     41  CD1 LEU A   2      11.872  30.738  29.165  0.00  0.00    +0.000 C 
ENDBRANCH  38  39
ENDBRANCH  26  38
ENDBRANCH  22  26
ENDBRANCH  21  23
BRANCH  21  42
ATOM     42  CB  ASP A   3      13.458  25.506  22.980  0.00  0.00    +0.143 C 
BRANCH  42  43
ATOM     43  CG  ASP A   3      13.886  25.238  21.548  0.00  0.00    +0.367 C 
ATOM     44  OD2 ASP A   3      14.787  24.372  21.359  0.00  0.00    -0.246 OA
ATOM     45  OD1 ASP A   3      13.299  25.903  20.640  0.00  0.00    -0.246 OA
ENDBRANCH  42  43
ENDBRANCH  21  42
ENDBRANCH  17  21
ENDBRANCH  16  19
BRANCH  16  46
ATOM     46  CB  THR A   4       8.834  28.754  20.835  0.00  0.00    +0.137 C 
ATOM     47  CG2 THR A   4       8.639  29.583  22.104  0.00  0.00    +0.034 C 
BRANCH  46  48
ATOM     48  OG1 THR A   4       9.719  29.446  19.972  0.00  0.00    -0.382 OA
ATOM     49  HG1 THR A   4       9.864  28.911  19.152  0.00  0.00    +0.210 HD
ENDBRANCH  46  48
ENDBRANCH  16  46
ENDBRANCH  12  16
ENDBRANCH  11  14
ENDBRANCH   7  11
ENDBRANCH   5   8
ENDBRANCH   1   5
BRANCH   3  50
ATOM     50  CA  ASP A   7       7.881  20.046  20.800  0.00  0.00    +0.160 C 
BRANCH  50  51
ATOM     51  C   ASP A   7       7.973  19.565  22.248  0.00  0.00    +0.241 C 
ATOM     52  O   ASP A   7       7.014  19.619  23.017  0.00  0.00    -0.273 OA
ATOM     53  N   ASP A   8       9.176  19.094  22.556  0.00  0.00    -0.297 N 
ATOM     54  H   ASP A   8       9.963  19.330  21.919  0.00  0.00    +0.150 HD
BRANCH  53  55
ATOM     55  CA  ASP A   8       9.475  18.271  23.720  0.00  0.00    +0.160 C 
BRANCH  55  56
ATOM     56  C   ASP A   8      10.589  18.846  24.580  0.00  0.00    +0.241 C 
ATOM     57  N   THR A   9      10.523  18.559  25.873  0.00  0.00    -0.295 N 
ATOM     58  H   THR A   9       9.684  18.060  26.232  0.00  0.00    +0.150 HD
ATOM     59  O   ASP A   8      11.492  19.565  24.151  0.00  0.00    -0.273 OA
BRANCH  57  60
ATOM     60  CA  THR A   9      11.583  18.917  26.813  0.00  0.00    +0.176 C 
BRANCH  60  61
ATOM     61  C   THR A   9      12.636  17.839  26.852  0.00  0.00    +0.243 C 
ATOM     62  O   THR A   9      12.282  16.659  27.042  0.00  0.00    -0.273 OA
ATOM     63  N   VAL A  10      13.898  18.205  26.667  0.00  0.00    -0.297 N 
ATOM     64  H   VAL A  10      14.141  19.206  26.520  0.00  0.00    +0.150 HD
BRANCH  63  65
ATOM     65  CA  VAL A  10      14.936  17.189  26.673  0.00  0.00    +0.149 C 
BRANCH  65  66
ATOM     66  C   VAL A  10      16.093  17.747  27.479  0.00  0.00    +0.241 C 
ATOM     67  N   ILE A  11      16.608  16.930  28.374  0.00  0.00    -0.298 N 
ATOM     68  H   ILE A  11      16.218  15.970  28.466  0.00  0.00    +0.150 HD
ATOM     69  O   VAL A  10      16.502  18.892  27.321  0.00  0.00    -0.273 OA
BRANCH  67  70
ATOM     70  CA  ILE A  11      17.704  17.330  29.236  0.00  0.00    +0.137 C 
BRANCH  70  71
ATOM     71  CB  ILE A  11      17.197  17.404  30.674  0.00  0.00    +0.026 C 
ATOM     72  CG2 ILE A  11      16.049  18.421  30.838  0.00  0.00    +0.002 C 
BRANCH  71  73
ATOM     73  CG1 ILE A  11      16.770  16.023  31.181  0.00  0.00    +0.002 C 
ATOM     74  CD1 ILE A  11      16.447  16.073  32.670  0.00  0.00    +0.000 C 
ENDBRANCH  71  73
ENDBRANCH  70  71
BRANCH  70  75
ATOM     75  C   ILE A  11      18.846  16.326  29.151  0.00  0.00    +0.227 C 
ATOM     76  O   ILE A  11      18.727  15.175  28.771  0.00  0.00    -0.286 OA
ENDBRANCH  70  75
ENDBRANCH  67  70
ENDBRANCH  65  66
BRANCH  65  77
ATOM     77  CB  VAL A  10      15.291  16.761  25.249  0.00  0.00    +0.027 C 
ATOM     78  CG2 VAL A  10      16.431  15.708  25.345  0.00  0.00    +0.002 C 
ATOM     79  CG1 VAL A  10      15.607  17.912  24.366  0.00  0.00    +0.002 C 
ENDBRANCH  65  77
ENDBRANCH  63  65
ENDBRANCH  60  61
BRANCH  60  80
ATOM     80  CB  THR A   9      10.957  19.130  28.204  0.00  0.00    +0.137 C 
ATOM     81  CG2 THR A   9      11.965  19.363  29.305  0.00  0.00    +0.034 C 
BRANCH  80  82
ATOM     82  OG1 THR A   9      10.111  20.316  28.081  0.00  0.00    -0.382 OA
ATOM     83  HG1 THR A   9       9.416  20.155  27.394  0.00  0.00    +0.210 HD
ENDBRANCH  80  82
ENDBRANCH  60  80
ENDBRANCH  57  60
ENDBRANCH  55  56
BRANCH  55  84
ATOM     84  CB  ASP A   8       9.918  16.887  23.249  0.00  0.00    +0.143 C 
BRANCH  84  85
ATOM     85  CG  ASP A   8       9.041  16.235  22.215  0.00  0.00    +0.367 C 
ATOM     86  OD2 ASP A   8       7.819  16.108  22.519  0.00  0.00    -0.246 OA
ATOM     87  OD1 ASP A   8       9.545  15.830  21.124  0.00  0.00    -0.246 OA
ENDBRANCH  84  85
ENDBRANCH  55  84
ENDBRANCH  53  55
ENDBRANCH  50  51
BRANCH  50  88
ATOM     88  CB  ASP A   7       7.428  18.887  19.913  0.00  0.00    +0.143 C 
BRANCH  88  89
ATOM     89  CG  ASP A   7       7.152  19.204  18.466  0.00  0.00    +0.367 C 
ATOM     90  OD2 ASP A   7       6.892  20.369  18.085  0.00  0.00    -0.246 OA
ATOM     91  OD1 ASP A   7       7.252  18.244  17.654  0.00  0.00    -0.246 OA
ENDBRANCH  88  89
ENDBRANCH  50  88
ENDBRANCH   3  50
TORSDOF 39
REMARK  Name = ../refined-set-2016/3nu5/3nu5_pocket.pdb
REMARK  239 active torsions:
REMARK  status: ('A' for Active; 'I' for Inactive)
REMARK    1  A    between atoms: _1  and  _3
REMARK    2  A    between atoms: _3  and  _4
REMARK    3  A    between atoms: _3  and  _6
REMARK    4  A    between atoms: _6  and  _7
REMARK    5  A    between atoms: _7  and  _8
REMARK    6  A    between atoms: _8  and  _9
REMARK    7  A    between atoms: _18  and  _20
REMARK    8  A    between atoms: _20  and  _21
REMARK    9  A    between atoms: _20  and  _23
REMARK   10  A    between atoms: _23  and  _24
REMARK   11  A    between atoms: _27  and  _29
REMARK   12  A    between atoms: _29  and  _30
REMARK   13  A    between atoms: _29  and  _32
REMARK   14  A    between atoms: _32  and  _33
REMARK   15  A    between atoms: _36  and  _38
REMARK   16  A    between atoms: _38  and  _39
REMARK   17  A    between atoms: _38  and  _41
REMARK   18  A    between atoms: _41  and  _42
REMARK   19  A    between atoms: _45  and  _47
REMARK   20  A    between atoms: _47  and  _48
REMARK   21  A    between atoms: _47  and  _50
REMARK   22  A    between atoms: _50  and  _51
REMARK   23  A    between atoms: _54  and  _56
REMARK   24  A    between atoms: _56  and  _57
REMARK   25  A    between atoms: _59  and  _61
REMARK   26  A    between atoms: _61  and  _62
REMARK   27  A    between atoms: _65  and  _67
REMARK   28  A    between atoms: _67  and  _68
REMARK   29  A    between atoms: _67  and  _70
REMARK   30  A    between atoms: _70  and  _71
REMARK   31  A    between atoms: _74  and  _76
REMARK   32  A    between atoms: _76  and  _77
REMARK   33  A    between atoms: _76  and  _79
REMARK   34  A    between atoms: _79  and  _80
REMARK   35  A    between atoms: _83  and  _85
REMARK   36  A    between atoms: _85  and  _86
REMARK   37  A    between atoms: _85  and  _88
REMARK   38  A    between atoms: _88  and  _89
REMARK   39  A    between atoms: _92  and  _94
REMARK   40  A    between atoms: _94  and  _95
REMARK   41  A    between atoms: _94  and  _97
REMARK   42  A    between atoms: _100  and  _102
REMARK   43  A    between atoms: _102  and  _103
REMARK   44  A    between atoms: _102  and  _105
REMARK   45  A    between atoms: _105  and  _106
REMARK   46  A    between atoms: _109  and  _111
REMARK   47  A    between atoms: _111  and  _112
REMARK   48  A    between atoms: _111  and  _114
REMARK   49  A    between atoms: _114  and  _115
REMARK   50  A    between atoms: _115  and  _116
REMARK   51  A    between atoms: _116  and  _117
REMARK   52  A    between atoms: _117  and  _118
REMARK   53  A    between atoms: _122  and  _124
REMARK   54  A    between atoms: _124  and  _125
REMARK   55  A    between atoms: _124  and  _127
REMARK   56  A    between atoms: _127  and  _128
REMARK   57  A    between atoms: _128  and  _129
REMARK   58  A    between atoms: _131  and  _133
REMARK   59  A    between atoms: _133  and  _134
REMARK   60  A    between atoms: _133  and  _136
REMARK   61  A    between atoms: _136  and  _137
REMARK   62  A    between atoms: _140  and  _142
REMARK   63  A    between atoms: _142  and  _143
REMARK   64  A    between atoms: _145  and  _147
REMARK   65  A    between atoms: _147  and  _148
REMARK   66  A    between atoms: _150  and  _152
REMARK   67  A    between atoms: _152  and  _153
REMARK   68  A    between atoms: _152  and  _155
REMARK   69  A    between atoms: _158  and  _160
REMARK   70  A    between atoms: _160  and  _161
REMARK   71  A    between atoms: _163  and  _165
REMARK   72  A    between atoms: _165  and  _166
REMARK   73  A    between atoms: _168  and  _170
REMARK   74  A    between atoms: _170  and  _171
REMARK   75  A    between atoms: _170  and  _173
REMARK   76  A    between atoms: _173  and  _174
REMARK   77  A    between atoms: _180  and  _182
REMARK   78  A    between atoms: _182  and  _183
REMARK   79  A    between atoms: _182  and  _185
REMARK   80  A    between atoms: _185  and  _186
REMARK   81  A    between atoms: _189  and  _191
REMARK   82  A    between atoms: _191  and  _192
REMARK   83  A    between atoms: _191  and  _194
REMARK   84  A    between atoms: _197  and  _199
REMARK   85  A    between atoms: _199  and  _200
REMARK   86  A    between atoms: _199  and  _202
REMARK   87  A    between atoms: _202  and  _203
REMARK   88  A    between atoms: _207  and  _208
REMARK   89  A    between atoms: _213  and  _215
REMARK   90  A    between atoms: _215  and  _216
REMARK   91  A    between atoms: _215  and  _218
REMARK   92  A    between atoms: _218  and  _219
REMARK   93  A    between atoms: _223  and  _224
REMARK   94  A    between atoms: _229  and  _231
REMARK   95  A    between atoms: _231  and  _232
REMARK   96  A    between atoms: _231  and  _234
REMARK   97  A    between atoms: _237  and  _239
REMARK   98  A    between atoms: _239  and  _240
REMARK   99  A    between atoms: _239  and  _242
REMARK  100  A    between atoms: _242  and  _243
REMARK  101  A    between atoms: _248  and  _250
REMARK  102  A    between atoms: _250  and  _251
REMARK  103  A    between atoms: _250  and  _253
REMARK  104  A    between atoms: _253  and  _254
REMARK  105  A    between atoms: _257  and  _259
REMARK  106  A    between atoms: _259  and  _260
REMARK  107  A    between atoms: _259  and  _262
REMARK  108  A    between atoms: _262  and  _263
REMARK  109  A    between atoms: _266  and  _268
REMARK  110  A    between atoms: _268  and  _269
REMARK  111  A    between atoms: _271  and  _273
REMARK  112  A    between atoms: _273  and  _274
REMARK  113  A    between atoms: _273  and  _276
REMARK  114  A    between atoms: _276  and  _277
REMARK  115  A    between atoms: _277  and  _278
REMARK  116  A    between atoms: _278  and  _279
REMARK  117  A    between atoms: _288  and  _290
REMARK  118  A    between atoms: _290  and  _291
REMARK  119  A    between atoms: _290  and  _293
REMARK  120  A    between atoms: _293  and  _294
REMARK  121  A    between atoms: _299  and  _301
REMARK  122  A    between atoms: _301  and  _302
REMARK  123  A    between atoms: _301  and  _304
REMARK  124  A    between atoms: _304  and  _305
REMARK  125  A    between atoms: _305  and  _306
REMARK  126  A    between atoms: _306  and  _307
REMARK  127  A    between atoms: _316  and  _318
REMARK  128  A    between atoms: _318  and  _319
REMARK  129  A    between atoms: _318  and  _321
REMARK  130  A    between atoms: _321  and  _322
REMARK  131  A    between atoms: _325  and  _327
REMARK  132  A    between atoms: _327  and  _328
REMARK  133  A    between atoms: _327  and  _330
REMARK  134  A    between atoms: _330  and  _331
REMARK  135  A    between atoms: _334  and  _336
REMARK  136  A    between atoms: _336  and  _337
REMARK  137  A    between atoms: _336  and  _339
REMARK  138  A    between atoms: _339  and  _340
REMARK  139  A    between atoms: _343  and  _345
REMARK  140  A    between atoms: _345  and  _346
REMARK  141  A    between atoms: _345  and  _348
REMARK  142  A    between atoms: _348  and  _349
REMARK  143  A    between atoms: _352  and  _354
REMARK  144  A    between atoms: _354  and  _355
REMARK  145  A    between atoms: _357  and  _359
REMARK  146  A    between atoms: _359  and  _360
REMARK  147  A    between atoms: _363  and  _365
REMARK  148  A    between atoms: _365  and  _366
REMARK  149  A    between atoms: _365  and  _368
REMARK  150  A    between atoms: _368  and  _369
REMARK  151  A    between atoms: _372  and  _374
REMARK  152  A    between atoms: _374  and  _375
REMARK  153  A    between atoms: _374  and  _377
REMARK  154  A    between atoms: _377  and  _378
REMARK  155  A    between atoms: _381  and  _383
REMARK  156  A    between atoms: _383  and  _384
REMARK  157  A    between atoms: _383  and  _386
REMARK  158  A    between atoms: _386  and  _387
REMARK  159  A    between atoms: _390  and  _392
REMARK  160  A    between atoms: _392  and  _393
REMARK  161  A    between atoms: _392  and  _395
REMARK  162  A    between atoms: _398  and  _400
REMARK  163  A    between atoms: _400  and  _401
REMARK  164  A    between atoms: _400  and  _403
REMARK  165  A    between atoms: _403  and  _404
REMARK  166  A    between atoms: _407  and  _409
REMARK  167  A    between atoms: _409  and  _410
REMARK  168  A    between atoms: _409  and  _412
REMARK  169  A    between atoms: _412  and  _413
REMARK  170  A    between atoms: _413  and  _414
REMARK  171  A    between atoms: _414  and  _415
REMARK  172  A    between atoms: _415  and  _416
REMARK  173  A    between atoms: _420  and  _422
REMARK  174  A    between atoms: _422  and  _423
REMARK  175  A    between atoms: _422  and  _425
REMARK  176  A    between atoms: _425  and  _426
REMARK  177  A    between atoms: _426  and  _427
REMARK  178  A    between atoms: _429  and  _431
REMARK  179  A    between atoms: _431  and  _432
REMARK  180  A    between atoms: _431  and  _434
REMARK  181  A    between atoms: _434  and  _435
REMARK  182  A    between atoms: _438  and  _440
REMARK  183  A    between atoms: _440  and  _441
REMARK  184  A    between atoms: _443  and  _445
REMARK  185  A    between atoms: _445  and  _446
REMARK  186  A    between atoms: _448  and  _450
REMARK  187  A    between atoms: _450  and  _451
REMARK  188  A    between atoms: _450  and  _453
REMARK  189  A    between atoms: _456  and  _458
REMARK  190  A    between atoms: _458  and  _459
REMARK  191  A    between atoms: _461  and  _463
REMARK  192  A    between atoms: _463  and  _464
REMARK  193  A    between atoms: _466  and  _468
REMARK  194  A    between atoms: _468  and  _469
REMARK  195  A    between atoms: _468  and  _471
REMARK  196  A    between atoms: _471  and  _472
REMARK  197  A    between atoms: _478  and  _480
REMARK  198  A    between atoms: _480  and  _481
REMARK  199  A    between atoms: _480  and  _483
REMARK  200  A    between atoms: _483  and  _484
REMARK  201  A    between atoms: _487  and  _489
REMARK  202  A    between atoms: _489  and  _490
REMARK  203  A    between atoms: _489  and  _492
REMARK  204  A    between atoms: _495  and  _497
REMARK  205  A    between atoms: _497  and  _498
REMARK  206  A    between atoms: _497  and  _500
REMARK  207  A    between atoms: _500  and  _501
REMARK  208  A    between atoms: _504  and  _506
REMARK  209  A    between atoms: _506  and  _507
REMARK  210  A    between atoms: _506  and  _509
REMARK  211  A    between atoms: _509  and  _510
REMARK  212  A    between atoms: _514  and  _515
REMARK  213  A    between atoms: _520  and  _522
REMARK  214  A    between atoms: _522  and  _523
REMARK  215  A    between atoms: _522  and  _525
REMARK  216  A    between atoms: _528  and  _530
REMARK  217  A    between atoms: _530  and  _531
REMARK  218  A    between atoms: _530  and  _533
REMARK  219  A    between atoms: _533  and  _534
REMARK  220  A    between atoms: _539  and  _541
REMARK  221  A    between atoms: _541  and  _542
REMARK  222  A    between atoms: _541  and  _544
REMARK  223  A    between atoms: _544  and  _545
REMARK  224  A    between atoms: _548  and  _550
REMARK  225  A    between atoms: _550  and  _551
REMARK  226  A    between atoms: _550  and  _553
REMARK  227  A    between atoms: _553  and  _554
REMARK  228  A    between atoms: _557  and  _559
REMARK  229  A    between atoms: _559  and  _560
REMARK  230  A    between atoms: _562  and  _564
REMARK  231  A    between atoms: _564  and  _565
REMARK  232  A    between atoms: _564  and  _567
REMARK  233  A    between atoms: _567  and  _568
REMARK  234  A    between atoms: _568  and  _569
REMARK  235  A    between atoms: _569  and  _570
REMARK  236  A    between atoms: _579  and  _581
REMARK  237  A    between atoms: _581  and  _582
REMARK  238  A    between atoms: _581  and  _584
REMARK  239  A    between atoms: _584  and  _585
REMARK                            x       y       z     vdW  Elec       q    Type
REMARK                         _______ _______ _______ _____ _____    ______ ____
ROOT
ATOM      1  C   GLY A   5      16.921  18.430  13.920  0.00  0.00    +0.243 C 
ATOM      2  N   VAL A   6      17.672  19.520  13.975  0.00  0.00    -0.297 N 
ATOM      3  H   VAL A   6      17.823  20.010  14.880  0.00  0.00    +0.150 HD
ATOM      4  O   GLY A   5      16.794  17.738  12.908  0.00  0.00    -0.273 OA
ENDROOT
BRANCH   2   5
ATOM      5  CA  VAL A   6      18.283  20.024  12.756  0.00  0.00    +0.149 C 
BRANCH   5   6
ATOM      6  C   VAL A   6      19.186  18.993  12.132  0.00  0.00    +0.241 C 
ATOM      7  N   GLY A   7      19.906  18.147  12.842  0.00  0.00    -0.295 N 
ATOM      8  H   GLY A   7      19.837  18.157  13.880  0.00  0.00    +0.150 HD
ATOM      9  O   VAL A   6      19.238  18.899  10.898  0.00  0.00    -0.273 OA
BRANCH   7  10
ATOM     10  CA  GLY A   7      20.793  17.202  12.191  0.00  0.00    +0.176 C 
BRANCH  10  11
ATOM     11  C   GLY A   7      20.216  15.834  11.967  0.00  0.00    +0.243 C 
ATOM     12  N   GLY A   8      18.994  15.570  12.380  0.00  0.00    -0.295 N 
ATOM     13  H   GLY A   8      18.431  16.318  12.832  0.00  0.00    +0.150 HD
ATOM     14  O   GLY A   7      20.854  14.951  11.363  0.00  0.00    -0.273 OA
BRANCH  12  15
ATOM     15  CA  GLY A   8      18.422  14.239  12.210  0.00  0.00    +0.176 C 
BRANCH  15  16
ATOM     16  C   GLY A   8      17.734  13.773  13.494  0.00  0.00    +0.243 C 
ATOM     17  O   GLY A   8      17.543  14.621  14.367  0.00  0.00    -0.273 OA
ATOM     18  N   PHE A   9      17.364  12.505  13.542  0.00  0.00    -0.297 N 
ATOM     19  H   PHE A   9      17.669  11.875  12.773  0.00  0.00    +0.150 HD
BRANCH  18  20
ATOM     20  CA  PHE A   9      16.560  11.945  14.602  0.00  0.00    +0.153 C 
BRANCH  20  21
ATOM     21  C   PHE A   9      17.473  11.151  15.516  0.00  0.00    +0.241 C 
ATOM     22  N   ILE A  10      17.243  11.163  16.824  0.00  0.00    -0.298 N 
ATOM     23  H   ILE A  10      16.431  11.722  17.156  0.00  0.00    +0.150 HD
ATOM     24  O   PHE A   9      18.402  10.529  14.991  0.00  0.00    -0.273 OA
BRANCH  22  25
ATOM     25  CA  ILE A  10      18.019  10.470  17.829  0.00  0.00    +0.137 C 
BRANCH  25  26
ATOM     26  C   ILE A  10      17.065   9.847  18.836  0.00  0.00    +0.227 C 
ATOM     27  O   ILE A  10      15.951  10.286  19.005  0.00  0.00    -0.286 OA
ENDBRANCH  25  26
BRANCH  25  28
ATOM     28  CB  ILE A  10      18.976  11.403  18.588  0.00  0.00    +0.026 C 
ATOM     29  CG2 ILE A  10      19.923  12.116  17.631  0.00  0.00    +0.002 C 
BRANCH  28  30
ATOM     30  CG1 ILE A  10      18.211  12.412  19.429  0.00  0.00    +0.002 C 
ATOM     31  CD1 ILE A  10      18.867  13.067  20.607  0.00  0.00    +0.000 C 
ENDBRANCH  28  30
ENDBRANCH  25  28
ENDBRANCH  22  25
ENDBRANCH  20  21
BRANCH  20  32
ATOM     32  CB  PHE A   9      15.483  11.016  14.038  0.00  0.00    +0.055 C 
BRANCH  32  33
ATOM     33  CG  PHE A   9      14.227  11.715  13.537  0.00  0.00    -0.020 A 
ATOM     34  CD2 PHE A   9      13.099  11.833  14.307  0.00  0.00    -0.004 A 
ATOM     35  CE2 PHE A   9      11.986  12.491  13.833  0.00  0.00    -0.000 A 
ATOM     36  CZ  PHE A   9      11.974  13.067  12.571  0.00  0.00    -0.000 A 
ATOM     37  CE1 PHE A   9      13.088  12.950  11.781  0.00  0.00    -0.000 A 
ATOM     38  CD1 PHE A   9      14.195  12.281  12.265  0.00  0.00    -0.004 A 
ENDBRANCH  32  33
ENDBRANCH  20  32
ENDBRANCH  18  20
ENDBRANCH  15  16
ENDBRANCH  12  15
ENDBRANCH  10  11
ENDBRANCH   7  10
ENDBRANCH   5   6
BRANCH   5  39
ATOM     39  CB  VAL A   6      19.018  21.350  13.052  0.00  0.00    +0.027 C 
ATOM     40  CG2 VAL A   6      20.369  21.074  13.671  0.00  0.00    +0.002 C 
ATOM     41  CG1 VAL A   6      19.112  22.151  11.776  0.00  0.00    +0.002 C 
ENDBRANCH   5  39
ENDBRANCH   2   5
BRANCH   1  42
ATOM     42  CA  GLY A   5      16.271  18.075  15.215  0.00  0.00    +0.176 C 
BRANCH  42  45
ATOM     43  C   GLY A   4      14.508  16.476  15.593  0.00  0.00    +0.243 C 
ATOM     44  O   GLY A   4      13.768  17.294  16.133  0.00  0.00    -0.273 OA
ATOM     45  N   GLY A   5      15.735  16.755  15.208  0.00  0.00    -0.295 N 
ATOM     46  H   GLY A   5      16.342  15.975  14.883  0.00  0.00    +0.150 HD
BRANCH  43  47
ATOM     47  CA  GLY A   4      14.102  15.060  15.362  0.00  0.00    +0.176 C 
BRANCH  47  50
ATOM     48  C   ILE A   3      14.059  13.579  17.303  0.00  0.00    +0.241 C 
ATOM     49  O   ILE A   3      15.181  13.128  17.129  0.00  0.00    -0.273 OA
ATOM     50  N   GLY A   4      13.478  14.512  16.556  0.00  0.00    -0.295 N 
ATOM     51  H   GLY A   4      12.540  14.864  16.836  0.00  0.00    +0.150 HD
BRANCH  48  52
ATOM     52  CA  ILE A   3      13.152  13.074  18.407  0.00  0.00    +0.149 C 
BRANCH  52  54
ATOM     53  C   MET A   2      12.428  10.790  18.658  0.00  0.00    +0.241 C 
ATOM     54  N   ILE A   3      13.411  11.672  18.641  0.00  0.00    -0.297 N 
ATOM     55  H   ILE A   3      14.388  11.352  18.799  0.00  0.00    +0.150 HD
ATOM     56  O   MET A   2      11.225  11.031  18.561  0.00  0.00    -0.273 OA
BRANCH  53  57
ATOM     57  CA  MET A   2      12.805   9.322  18.767  0.00  0.00    +0.149 C 
BRANCH  57  60
ATOM     58  C   LYS A   1      12.346   8.363  20.960  0.00  0.00    +0.238 C 
ATOM     59  O   LYS A   1      13.523   8.391  21.316  0.00  0.00    -0.274 OA
ATOM     60  N   MET A   2      11.948   8.717  19.767  0.00  0.00    -0.297 N 
ATOM     61  H   MET A   2      10.951   8.554  19.519  0.00  0.00    +0.150 HD
BRANCH  58  62
ATOM     62  CA  LYS A   1      11.285   7.946  21.962  0.00  0.00    +0.145 C 
BRANCH  62  63
ATOM     63  N   LYS A   1      11.819   6.870  22.763  0.00  0.00    -0.238 NA
ATOM     64  H   LYS A   1      12.841   6.821  22.947  0.00  0.00    +0.142 HD
ENDBRANCH  62  63
BRANCH  62  65
ATOM     65  CB  LYS A   1      10.934   9.081  22.906  0.00  0.00    +0.026 C 
BRANCH  65  66
ATOM     66  CG  LYS A   1      10.555  10.426  22.343  0.00  0.00    -0.000 C 
BRANCH  66  67
ATOM     67  CD  LYS A   1       9.130  10.429  21.821  0.00  0.00    -0.024 C 
BRANCH  67  68
ATOM     68  CE  LYS A   1       8.743  11.747  21.163  0.00  0.00    -0.086 C 
BRANCH  68  69
ATOM     69  NZ  LYS A   1       7.544  12.392  21.772  0.00  0.00    +0.380 N 
ATOM     70  HZ1 LYS A   1       7.730  12.589  22.776  0.00  0.00    -0.089 HD
ATOM     71  HZ2 LYS A   1       6.728  11.752  21.689  0.00  0.00    -0.089 HD
ATOM     72  HZ3 LYS A   1       7.340  13.282  21.274  0.00  0.00    -0.089 HD
ENDBRANCH  68  69
ENDBRANCH  67  68
ENDBRANCH  66  67
ENDBRANCH  65  66
ENDBRANCH  62  65
ENDBRANCH  58  62
ENDBRANCH  57  60
BRANCH  57  73
ATOM     73  CB  MET A   2      12.633   8.714  17.374  0.00  0.00    +0.041 C 
BRANCH  73  74
ATOM     74  CG  MET A   2      12.872   7.210  17.308  0.00  0.00    +0.060 C 
BRANCH  74  75
ATOM     75  SD  MET A   2      14.600   6.839  17.588  0.00  0.00    -0.139 S 
ATOM     76  CE  MET A   2      15.450   7.762  16.319  0.00  0.00    +0.069 C 
ENDBRANCH  74  75
ENDBRANCH  73  74
ENDBRANCH  57  73
ENDBRANCH  53  57
ENDBRANCH  52  54
BRANCH  52  77
ATOM     77  CB  ILE A   3      13.308  13.950  19.671  0.00  0.00    +0.027 C 
ATOM     78  CG2 ILE A   3      12.230  13.559  20.651  0.00  0.00    +0.002 C 
BRANCH  77  79
ATOM     79  CG1 ILE A   3      14.724  13.895  20.238  0.00  0.00    +0.002 C 
ATOM     80  CD1 ILE A   3      14.982  14.928  21.319  0.00  0.00    +0.000 C 
ENDBRANCH  77  79
ENDBRANCH  52  77
ENDBRANCH  48  52
ENDBRANCH  47  50
ENDBRANCH  43  47
ENDBRANCH  42  45
ENDBRANCH   1  42
TORSDOF 35
REMARK  Name = ../refined-set-2016/3nu5/3nu5_pocket.pdb
REMARK  239 active torsions:
REMARK  status: ('A' for Active; 'I' for Inactive)
REMARK    1  A    between atoms: _1  and  _3
REMARK    2  A    between atoms: _3  and  _4
REMARK    3  A    between atoms: _3  and  _6
REMARK    4  A    between atoms: _6  and  _7
REMARK    5  A    between atoms: _7  and  _8
REMARK    6  A    between atoms: _8  and  _9
REMARK    7  A    between atoms: _18  and  _20
REMARK    8  A    between atoms: _20  and  _21
REMARK    9  A    between atoms: _20  and  _23
REMARK   10  A    between atoms: _23  and  _24
REMARK   11  A    between atoms: _27  and  _29
REMARK   12  A    between atoms: _29  and  _30
REMARK   13  A    between atoms: _29  and  _32
REMARK   14  A    between atoms: _32  and  _33
REMARK   15  A    between atoms: _36  and  _38
REMARK   16  A    between atoms: _38  and  _39
REMARK   17  A    between atoms: _38  and  _41
REMARK   18  A    between atoms: _41  and  _42
REMARK   19  A    between atoms: _45  and  _47
REMARK   20  A    between atoms: _47  and  _48
REMARK   21  A    between atoms: _47  and  _50
REMARK   22  A    between atoms: _50  and  _51
REMARK   23  A    between atoms: _54  and  _56
REMARK   24  A    between atoms: _56  and  _57
REMARK   25  A    between atoms: _59  and  _61
REMARK   26  A    between atoms: _61  and  _62
REMARK   27  A    between atoms: _65  and  _67
REMARK   28  A    between atoms: _67  and  _68
REMARK   29  A    between atoms: _67  and  _70
REMARK   30  A    between atoms: _70  and  _71
REMARK   31  A    between atoms: _74  and  _76
REMARK   32  A    between atoms: _76  and  _77
REMARK   33  A    between atoms: _76  and  _79
REMARK   34  A    between atoms: _79  and  _80
REMARK   35  A    between atoms: _83  and  _85
REMARK   36  A    between atoms: _85  and  _86
REMARK   37  A    between atoms: _85  and  _88
REMARK   38  A    between atoms: _88  and  _89
REMARK   39  A    between atoms: _92  and  _94
REMARK   40  A    between atoms: _94  and  _95
REMARK   41  A    between atoms: _94  and  _97
REMARK   42  A    between atoms: _100  and  _102
REMARK   43  A    between atoms: _102  and  _103
REMARK   44  A    between atoms: _102  and  _105
REMARK   45  A    between atoms: _105  and  _106
REMARK   46  A    between atoms: _109  and  _111
REMARK   47  A    between atoms: _111  and  _112
REMARK   48  A    between atoms: _111  and  _114
REMARK   49  A    between atoms: _114  and  _115
REMARK   50  A    between atoms: _115  and  _116
REMARK   51  A    between atoms: _116  and  _117
REMARK   52  A    between atoms: _117  and  _118
REMARK   53  A    between atoms: _122  and  _124
REMARK   54  A    between atoms: _124  and  _125
REMARK   55  A    between atoms: _124  and  _127
REMARK   56  A    between atoms: _127  and  _128
REMARK   57  A    between atoms: _128  and  _129
REMARK   58  A    between atoms: _131  and  _133
REMARK   59  A    between atoms: _133  and  _134
REMARK   60  A    between atoms: _133  and  _136
REMARK   61  A    between atoms: _136  and  _137
REMARK   62  A    between atoms: _140  and  _142
REMARK   63  A    between atoms: _142  and  _143
REMARK   64  A    between atoms: _145  and  _147
REMARK   65  A    between atoms: _147  and  _148
REMARK   66  A    between atoms: _150  and  _152
REMARK   67  A    between atoms: _152  and  _153
REMARK   68  A    between atoms: _152  and  _155
REMARK   69  A    between atoms: _158  and  _160
REMARK   70  A    between atoms: _160  and  _161
REMARK   71  A    between atoms: _163  and  _165
REMARK   72  A    between atoms: _165  and  _166
REMARK   73  A    between atoms: _168  and  _170
REMARK   74  A    between atoms: _170  and  _171
REMARK   75  A    between atoms: _170  and  _173
REMARK   76  A    between atoms: _173  and  _174
REMARK   77  A    between atoms: _180  and  _182
REMARK   78  A    between atoms: _182  and  _183
REMARK   79  A    between atoms: _182  and  _185
REMARK   80  A    between atoms: _185  and  _186
REMARK   81  A    between atoms: _189  and  _191
REMARK   82  A    between atoms: _191  and  _192
REMARK   83  A    between atoms: _191  and  _194
REMARK   84  A    between atoms: _197  and  _199
REMARK   85  A    between atoms: _199  and  _200
REMARK   86  A    between atoms: _199  and  _202
REMARK   87  A    between atoms: _202  and  _203
REMARK   88  A    between atoms: _207  and  _208
REMARK   89  A    between atoms: _213  and  _215
REMARK   90  A    between atoms: _215  and  _216
REMARK   91  A    between atoms: _215  and  _218
REMARK   92  A    between atoms: _218  and  _219
REMARK   93  A    between atoms: _223  and  _224
REMARK   94  A    between atoms: _229  and  _231
REMARK   95  A    between atoms: _231  and  _232
REMARK   96  A    between atoms: _231  and  _234
REMARK   97  A    between atoms: _237  and  _239
REMARK   98  A    between atoms: _239  and  _240
REMARK   99  A    between atoms: _239  and  _242
REMARK  100  A    between atoms: _242  and  _243
REMARK  101  A    between atoms: _248  and  _250
REMARK  102  A    between atoms: _250  and  _251
REMARK  103  A    between atoms: _250  and  _253
REMARK  104  A    between atoms: _253  and  _254
REMARK  105  A    between atoms: _257  and  _259
REMARK  106  A    between atoms: _259  and  _260
REMARK  107  A    between atoms: _259  and  _262
REMARK  108  A    between atoms: _262  and  _263
REMARK  109  A    between atoms: _266  and  _268
REMARK  110  A    between atoms: _268  and  _269
REMARK  111  A    between atoms: _271  and  _273
REMARK  112  A    between atoms: _273  and  _274
REMARK  113  A    between atoms: _273  and  _276
REMARK  114  A    between atoms: _276  and  _277
REMARK  115  A    between atoms: _277  and  _278
REMARK  116  A    between atoms: _278  and  _279
REMARK  117  A    between atoms: _288  and  _290
REMARK  118  A    between atoms: _290  and  _291
REMARK  119  A    between atoms: _290  and  _293
REMARK  120  A    between atoms: _293  and  _294
REMARK  121  A    between atoms: _299  and  _301
REMARK  122  A    between atoms: _301  and  _302
REMARK  123  A    between atoms: _301  and  _304
REMARK  124  A    between atoms: _304  and  _305
REMARK  125  A    between atoms: _305  and  _306
REMARK  126  A    between atoms: _306  and  _307
REMARK  127  A    between atoms: _316  and  _318
REMARK  128  A    between atoms: _318  and  _319
REMARK  129  A    between atoms: _318  and  _321
REMARK  130  A    between atoms: _321  and  _322
REMARK  131  A    between atoms: _325  and  _327
REMARK  132  A    between atoms: _327  and  _328
REMARK  133  A    between atoms: _327  and  _330
REMARK  134  A    between atoms: _330  and  _331
REMARK  135  A    between atoms: _334  and  _336
REMARK  136  A    between atoms: _336  and  _337
REMARK  137  A    between atoms: _336  and  _339
REMARK  138  A    between atoms: _339  and  _340
REMARK  139  A    between atoms: _343  and  _345
REMARK  140  A    between atoms: _345  and  _346
REMARK  141  A    between atoms: _345  and  _348
REMARK  142  A    between atoms: _348  and  _349
REMARK  143  A    between atoms: _352  and  _354
REMARK  144  A    between atoms: _354  and  _355
REMARK  145  A    between atoms: _357  and  _359
REMARK  146  A    between atoms: _359  and  _360
REMARK  147  A    between atoms: _363  and  _365
REMARK  148  A    between atoms: _365  and  _366
REMARK  149  A    between atoms: _365  and  _368
REMARK  150  A    between atoms: _368  and  _369
REMARK  151  A    between atoms: _372  and  _374
REMARK  152  A    between atoms: _374  and  _375
REMARK  153  A    between atoms: _374  and  _377
REMARK  154  A    between atoms: _377  and  _378
REMARK  155  A    between atoms: _381  and  _383
REMARK  156  A    between atoms: _383  and  _384
REMARK  157  A    between atoms: _383  and  _386
REMARK  158  A    between atoms: _386  and  _387
REMARK  159  A    between atoms: _390  and  _392
REMARK  160  A    between atoms: _392  and  _393
REMARK  161  A    between atoms: _392  and  _395
REMARK  162  A    between atoms: _398  and  _400
REMARK  163  A    between atoms: _400  and  _401
REMARK  164  A    between atoms: _400  and  _403
REMARK  165  A    between atoms: _403  and  _404
REMARK  166  A    between atoms: _407  and  _409
REMARK  167  A    between atoms: _409  and  _410
REMARK  168  A    between atoms: _409  and  _412
REMARK  169  A    between atoms: _412  and  _413
REMARK  170  A    between atoms: _413  and  _414
REMARK  171  A    between atoms: _414  and  _415
REMARK  172  A    between atoms: _415  and  _416
REMARK  173  A    between atoms: _420  and  _422
REMARK  174  A    between atoms: _422  and  _423
REMARK  175  A    between atoms: _422  and  _425
REMARK  176  A    between atoms: _425  and  _426
REMARK  177  A    between atoms: _426  and  _427
REMARK  178  A    between atoms: _429  and  _431
REMARK  179  A    between atoms: _431  and  _432
REMARK  180  A    between atoms: _431  and  _434
REMARK  181  A    between atoms: _434  and  _435
REMARK  182  A    between atoms: _438  and  _440
REMARK  183  A    between atoms: _440  and  _441
REMARK  184  A    between atoms: _443  and  _445
REMARK  185  A    between atoms: _445  and  _446
REMARK  186  A    between atoms: _448  and  _450
REMARK  187  A    between atoms: _450  and  _451
REMARK  188  A    between atoms: _450  and  _453
REMARK  189  A    between atoms: _456  and  _458
REMARK  190  A    between atoms: _458  and  _459
REMARK  191  A    between atoms: _461  and  _463
REMARK  192  A    between atoms: _463  and  _464
REMARK  193  A    between atoms: _466  and  _468
REMARK  194  A    between atoms: _468  and  _469
REMARK  195  A    between atoms: _468  and  _471
REMARK  196  A    between atoms: _471  and  _472
REMARK  197  A    between atoms: _478  and  _480
REMARK  198  A    between atoms: _480  and  _481
REMARK  199  A    between atoms: _480  and  _483
REMARK  200  A    between atoms: _483  and  _484
REMARK  201  A    between atoms: _487  and  _489
REMARK  202  A    between atoms: _489  and  _490
REMARK  203  A    between atoms: _489  and  _492
REMARK  204  A    between atoms: _495  and  _497
REMARK  205  A    between atoms: _497  and  _498
REMARK  206  A    between atoms: _497  and  _500
REMARK  207  A    between atoms: _500  and  _501
REMARK  208  A    between atoms: _504  and  _506
REMARK  209  A    between atoms: _506  and  _507
REMARK  210  A    between atoms: _506  and  _509
REMARK  211  A    between atoms: _509  and  _510
REMARK  212  A    between atoms: _514  and  _515
REMARK  213  A    between atoms: _520  and  _522
REMARK  214  A    between atoms: _522  and  _523
REMARK  215  A    between atoms: _522  and  _525
REMARK  216  A    between atoms: _528  and  _530
REMARK  217  A    between atoms: _530  and  _531
REMARK  218  A    between atoms: _530  and  _533
REMARK  219  A    between atoms: _533  and  _534
REMARK  220  A    between atoms: _539  and  _541
REMARK  221  A    between atoms: _541  and  _542
REMARK  222  A    between atoms: _541  and  _544
REMARK  223  A    between atoms: _544  and  _545
REMARK  224  A    between atoms: _548  and  _550
REMARK  225  A    between atoms: _550  and  _551
REMARK  226  A    between atoms: _550  and  _553
REMARK  227  A    between atoms: _553  and  _554
REMARK  228  A    between atoms: _557  and  _559
REMARK  229  A    between atoms: _559  and  _560
REMARK  230  A    between atoms: _562  and  _564
REMARK  231  A    between atoms: _564  and  _565
REMARK  232  A    between atoms: _564  and  _567
REMARK  233  A    between atoms: _567  and  _568
REMARK  234  A    between atoms: _568  and  _569
REMARK  235  A    between atoms: _569  and  _570
REMARK  236  A    between atoms: _579  and  _581
REMARK  237  A    between atoms: _581  and  _582
REMARK  238  A    between atoms: _581  and  _584
REMARK  239  A    between atoms: _584  and  _585
REMARK                            x       y       z     vdW  Elec       q    Type
REMARK                         _______ _______ _______ _____ _____    ______ ____
ROOT
ATOM      1  CA  VAL A   1      16.109   9.415  24.022  0.00  0.00    +0.133 C 
ENDROOT
BRANCH   1   2
ATOM      2  CB  VAL A   1      15.630  10.890  24.090  0.00  0.00    +0.023 C 
ATOM      3  CG2 VAL A   1      14.174  10.980  23.653  0.00  0.00    +0.002 C 
ATOM      4  CG1 VAL A   1      16.514  11.798  23.257  0.00  0.00    +0.002 C 
ENDBRANCH   1   2
BRANCH   1   5
ATOM      5  N   VAL A   1      16.055   8.887  22.680  0.00  0.00    -0.239 NA
ATOM      6  H   VAL A   1      15.130   8.618  22.289  0.00  0.00    +0.142 HD
ENDBRANCH   1   5
BRANCH   1   7
ATOM      7  C   VAL A   1      15.262   8.543  24.963  0.00  0.00    +0.224 C 
ATOM      8  O   VAL A   1      14.524   7.683  24.460  0.00  0.00    -0.287 OA
ENDBRANCH   1   7
TORSDOF 3
REMARK  Name = ../refined-set-2016/3nu5/3nu5_pocket.pdb
REMARK  239 active torsions:
REMARK  status: ('A' for Active; 'I' for Inactive)
REMARK    1  A    between atoms: _1  and  _3
REMARK    2  A    between atoms: _3  and  _4
REMARK    3  A    between atoms: _3  and  _6
REMARK    4  A    between atoms: _6  and  _7
REMARK    5  A    between atoms: _7  and  _8
REMARK    6  A    between atoms: _8  and  _9
REMARK    7  A    between atoms: _18  and  _20
REMARK    8  A    between atoms: _20  and  _21
REMARK    9  A    between atoms: _20  and  _23
REMARK   10  A    between atoms: _23  and  _24
REMARK   11  A    between atoms: _27  and  _29
REMARK   12  A    between atoms: _29  and  _30
REMARK   13  A    between atoms: _29  and  _32
REMARK   14  A    between atoms: _32  and  _33
REMARK   15  A    between atoms: _36  and  _38
REMARK   16  A    between atoms: _38  and  _39
REMARK   17  A    between atoms: _38  and  _41
REMARK   18  A    between atoms: _41  and  _42
REMARK   19  A    between atoms: _45  and  _47
REMARK   20  A    between atoms: _47  and  _48
REMARK   21  A    between atoms: _47  and  _50
REMARK   22  A    between atoms: _50  and  _51
REMARK   23  A    between atoms: _54  and  _56
REMARK   24  A    between atoms: _56  and  _57
REMARK   25  A    between atoms: _59  and  _61
REMARK   26  A    between atoms: _61  and  _62
REMARK   27  A    between atoms: _65  and  _67
REMARK   28  A    between atoms: _67  and  _68
REMARK   29  A    between atoms: _67  and  _70
REMARK   30  A    between atoms: _70  and  _71
REMARK   31  A    between atoms: _74  and  _76
REMARK   32  A    between atoms: _76  and  _77
REMARK   33  A    between atoms: _76  and  _79
REMARK   34  A    between atoms: _79  and  _80
REMARK   35  A    between atoms: _83  and  _85
REMARK   36  A    between atoms: _85  and  _86
REMARK   37  A    between atoms: _85  and  _88
REMARK   38  A    between atoms: _88  and  _89
REMARK   39  A    between atoms: _92  and  _94
REMARK   40  A    between atoms: _94  and  _95
REMARK   41  A    between atoms: _94  and  _97
REMARK   42  A    between atoms: _100  and  _102
REMARK   43  A    between atoms: _102  and  _103
REMARK   44  A    between atoms: _102  and  _105
REMARK   45  A    between atoms: _105  and  _106
REMARK   46  A    between atoms: _109  and  _111
REMARK   47  A    between atoms: _111  and  _112
REMARK   48  A    between atoms: _111  and  _114
REMARK   49  A    between atoms: _114  and  _115
REMARK   50  A    between atoms: _115  and  _116
REMARK   51  A    between atoms: _116  and  _117
REMARK   52  A    between atoms: _117  and  _118
REMARK   53  A    between atoms: _122  and  _124
REMARK   54  A    between atoms: _124  and  _125
REMARK   55  A    between atoms: _124  and  _127
REMARK   56  A    between atoms: _127  and  _128
REMARK   57  A    between atoms: _128  and  _129
REMARK   58  A    between atoms: _131  and  _133
REMARK   59  A    between atoms: _133  and  _134
REMARK   60  A    between atoms: _133  and  _136
REMARK   61  A    between atoms: _136  and  _137
REMARK   62  A    between atoms: _140  and  _142
REMARK   63  A    between atoms: _142  and  _143
REMARK   64  A    between atoms: _145  and  _147
REMARK   65  A    between atoms: _147  and  _148
REMARK   66  A    between atoms: _150  and  _152
REMARK   67  A    between atoms: _152  and  _153
REMARK   68  A    between atoms: _152  and  _155
REMARK   69  A    between atoms: _158  and  _160
REMARK   70  A    between atoms: _160  and  _161
REMARK   71  A    between atoms: _163  and  _165
REMARK   72  A    between atoms: _165  and  _166
REMARK   73  A    between atoms: _168  and  _170
REMARK   74  A    between atoms: _170  and  _171
REMARK   75  A    between atoms: _170  and  _173
REMARK   76  A    between atoms: _173  and  _174
REMARK   77  A    between atoms: _180  and  _182
REMARK   78  A    between atoms: _182  and  _183
REMARK   79  A    between atoms: _182  and  _185
REMARK   80  A    between atoms: _185  and  _186
REMARK   81  A    between atoms: _189  and  _191
REMARK   82  A    between atoms: _191  and  _192
REMARK   83  A    between atoms: _191  and  _194
REMARK   84  A    between atoms: _197  and  _199
REMARK   85  A    between atoms: _199  and  _200
REMARK   86  A    between atoms: _199  and  _202
REMARK   87  A    between atoms: _202  and  _203
REMARK   88  A    between atoms: _207  and  _208
REMARK   89  A    between atoms: _213  and  _215
REMARK   90  A    between atoms: _215  and  _216
REMARK   91  A    between atoms: _215  and  _218
REMARK   92  A    between atoms: _218  and  _219
REMARK   93  A    between atoms: _223  and  _224
REMARK   94  A    between atoms: _229  and  _231
REMARK   95  A    between atoms: _231  and  _232
REMARK   96  A    between atoms: _231  and  _234
REMARK   97  A    between atoms: _237  and  _239
REMARK   98  A    between atoms: _239  and  _240
REMARK   99  A    between atoms: _239  and  _242
REMARK  100  A    between atoms: _242  and  _243
REMARK  101  A    between atoms: _248  and  _250
REMARK  102  A    between atoms: _250  and  _251
REMARK  103  A    between atoms: _250  and  _253
REMARK  104  A    between atoms: _253  and  _254
REMARK  105  A    between atoms: _257  and  _259
REMARK  106  A    between atoms: _259  and  _260
REMARK  107  A    between atoms: _259  and  _262
REMARK  108  A    between atoms: _262  and  _263
REMARK  109  A    between atoms: _266  and  _268
REMARK  110  A    between atoms: _268  and  _269
REMARK  111  A    between atoms: _271  and  _273
REMARK  112  A    between atoms: _273  and  _274
REMARK  113  A    between atoms: _273  and  _276
REMARK  114  A    between atoms: _276  and  _277
REMARK  115  A    between atoms: _277  and  _278
REMARK  116  A    between atoms: _278  and  _279
REMARK  117  A    between atoms: _288  and  _290
REMARK  118  A    between atoms: _290  and  _291
REMARK  119  A    between atoms: _290  and  _293
REMARK  120  A    between atoms: _293  and  _294
REMARK  121  A    between atoms: _299  and  _301
REMARK  122  A    between atoms: _301  and  _302
REMARK  123  A    between atoms: _301  and  _304
REMARK  124  A    between atoms: _304  and  _305
REMARK  125  A    between atoms: _305  and  _306
REMARK  126  A    between atoms: _306  and  _307
REMARK  127  A    between atoms: _316  and  _318
REMARK  128  A    between atoms: _318  and  _319
REMARK  129  A    between atoms: _318  and  _321
REMARK  130  A    between atoms: _321  and  _322
REMARK  131  A    between atoms: _325  and  _327
REMARK  132  A    between atoms: _327  and  _328
REMARK  133  A    between atoms: _327  and  _330
REMARK  134  A    between atoms: _330  and  _331
REMARK  135  A    between atoms: _334  and  _336
REMARK  136  A    between atoms: _336  and  _337
REMARK  137  A    between atoms: _336  and  _339
REMARK  138  A    between atoms: _339  and  _340
REMARK  139  A    between atoms: _343  and  _345
REMARK  140  A    between atoms: _345  and  _346
REMARK  141  A    between atoms: _345  and  _348
REMARK  142  A    between atoms: _348  and  _349
REMARK  143  A    between atoms: _352  and  _354
REMARK  144  A    between atoms: _354  and  _355
REMARK  145  A    between atoms: _357  and  _359
REMARK  146  A    between atoms: _359  and  _360
REMARK  147  A    between atoms: _363  and  _365
REMARK  148  A    between atoms: _365  and  _366
REMARK  149  A    between atoms: _365  and  _368
REMARK  150  A    between atoms: _368  and  _369
REMARK  151  A    between atoms: _372  and  _374
REMARK  152  A    between atoms: _374  and  _375
REMARK  153  A    between atoms: _374  and  _377
REMARK  154  A    between atoms: _377  and  _378
REMARK  155  A    between atoms: _381  and  _383
REMARK  156  A    between atoms: _383  and  _384
REMARK  157  A    between atoms: _383  and  _386
REMARK  158  A    between atoms: _386  and  _387
REMARK  159  A    between atoms: _390  and  _392
REMARK  160  A    between atoms: _392  and  _393
REMARK  161  A    between atoms: _392  and  _395
REMARK  162  A    between atoms: _398  and  _400
REMARK  163  A    between atoms: _400  and  _401
REMARK  164  A    between atoms: _400  and  _403
REMARK  165  A    between atoms: _403  and  _404
REMARK  166  A    between atoms: _407  and  _409
REMARK  167  A    between atoms: _409  and  _410
REMARK  168  A    between atoms: _409  and  _412
REMARK  169  A    between atoms: _412  and  _413
REMARK  170  A    between atoms: _413  and  _414
REMARK  171  A    between atoms: _414  and  _415
REMARK  172  A    between atoms: _415  and  _416
REMARK  173  A    between atoms: _420  and  _422
REMARK  174  A    between atoms: _422  and  _423
REMARK  175  A    between atoms: _422  and  _425
REMARK  176  A    between atoms: _425  and  _426
REMARK  177  A    between atoms: _426  and  _427
REMARK  178  A    between atoms: _429  and  _431
REMARK  179  A    between atoms: _431  and  _432
REMARK  180  A    between atoms: _431  and  _434
REMARK  181  A    between atoms: _434  and  _435
REMARK  182  A    between atoms: _438  and  _440
REMARK  183  A    between atoms: _440  and  _441
REMARK  184  A    between atoms: _443  and  _445
REMARK  185  A    between atoms: _445  and  _446
REMARK  186  A    between atoms: _448  and  _450
REMARK  187  A    between atoms: _450  and  _451
REMARK  188  A    between atoms: _450  and  _453
REMARK  189  A    between atoms: _456  and  _458
REMARK  190  A    between atoms: _458  and  _459
REMARK  191  A    between atoms: _461  and  _463
REMARK  192  A    between atoms: _463  and  _464
REMARK  193  A    between atoms: _466  and  _468
REMARK  194  A    between atoms: _468  and  _469
REMARK  195  A    between atoms: _468  and  _471
REMARK  196  A    between atoms: _471  and  _472
REMARK  197  A    between atoms: _478  and  _480
REMARK  198  A    between atoms: _480  and  _481
REMARK  199  A    between atoms: _480  and  _483
REMARK  200  A    between atoms: _483  and  _484
REMARK  201  A    between atoms: _487  and  _489
REMARK  202  A    between atoms: _489  and  _490
REMARK  203  A    between atoms: _489  and  _492
REMARK  204  A    between atoms: _495  and  _497
REMARK  205  A    between atoms: _497  and  _498
REMARK  206  A    between atoms: _497  and  _500
REMARK  207  A    between atoms: _500  and  _501
REMARK  208  A    between atoms: _504  and  _506
REMARK  209  A    between atoms: _506  and  _507
REMARK  210  A    between atoms: _506  and  _509
REMARK  211  A    between atoms: _509  and  _510
REMARK  212  A    between atoms: _514  and  _515
REMARK  213  A    between atoms: _520  and  _522
REMARK  214  A    between atoms: _522  and  _523
REMARK  215  A    between atoms: _522  and  _525
REMARK  216  A    between atoms: _528  and  _530
REMARK  217  A    between atoms: _530  and  _531
REMARK  218  A    between atoms: _530  and  _533
REMARK  219  A    between atoms: _533  and  _534
REMARK  220  A    between atoms: _539  and  _541
REMARK  221  A    between atoms: _541  and  _542
REMARK  222  A    between atoms: _541  and  _544
REMARK  223  A    between atoms: _544  and  _545
REMARK  224  A    between atoms: _548  and  _550
REMARK  225  A    between atoms: _550  and  _551
REMARK  226  A    between atoms: _550  and  _553
REMARK  227  A    between atoms: _553  and  _554
REMARK  228  A    between atoms: _557  and  _559
REMARK  229  A    between atoms: _559  and  _560
REMARK  230  A    between atoms: _562  and  _564
REMARK  231  A    between atoms: _564  and  _565
REMARK  232  A    between atoms: _564  and  _567
REMARK  233  A    between atoms: _567  and  _568
REMARK  234  A    between atoms: _568  and  _569
REMARK  235  A    between atoms: _569  and  _570
REMARK  236  A    between atoms: _579  and  _581
REMARK  237  A    between atoms: _581  and  _582
REMARK  238  A    between atoms: _581  and  _584
REMARK  239  A    between atoms: _584  and  _585
REMARK                            x       y       z     vdW  Elec       q    Type
REMARK                         _______ _______ _______ _____ _____    ______ ____
ROOT
ATOM      1  CA  LEU A   1      13.178  13.261  27.795  0.00  0.00    +0.133 C 
ENDROOT
BRANCH   1   2
ATOM      2  N   LEU A   1      12.329  14.151  28.550  0.00  0.00    -0.239 NA
ATOM      3  H   LEU A   1      12.202  15.126  28.211  0.00  0.00    +0.142 HD
ENDBRANCH   1   2
BRANCH   1   4
ATOM      4  C   LEU A   1      14.624  13.447  28.256  0.00  0.00    +0.224 C 
ATOM      5  O   LEU A   1      15.027  14.562  28.577  0.00  0.00    -0.287 OA
ENDBRANCH   1   4
BRANCH   1   6
ATOM      6  CB  LEU A   1      13.060  13.532  26.295  0.00  0.00    +0.025 C 
BRANCH   6   7
ATOM      7  CG  LEU A   1      11.639  13.652  25.740  0.00  0.00    +0.002 C 
ATOM      8  CD2 LEU A   1      10.866  12.367  26.009  0.00  0.00    +0.000 C 
ATOM      9  CD1 LEU A   1      11.637  13.997  24.288  0.00  0.00    +0.000 C 
ENDBRANCH   6   7
ENDBRANCH   1   6
TORSDOF 4
REMARK  Name = ../refined-set-2016/3nu5/3nu5_pocket.pdb
REMARK  239 active torsions:
REMARK  status: ('A' for Active; 'I' for Inactive)
REMARK    1  A    between atoms: _1  and  _3
REMARK    2  A    between atoms: _3  and  _4
REMARK    3  A    between atoms: _3  and  _6
REMARK    4  A    between atoms: _6  and  _7
REMARK    5  A    between atoms: _7  and  _8
REMARK    6  A    between atoms: _8  and  _9
REMARK    7  A    between atoms: _18  and  _20
REMARK    8  A    between atoms: _20  and  _21
REMARK    9  A    between atoms: _20  and  _23
REMARK   10  A    between atoms: _23  and  _24
REMARK   11  A    between atoms: _27  and  _29
REMARK   12  A    between atoms: _29  and  _30
REMARK   13  A    between atoms: _29  and  _32
REMARK   14  A    between atoms: _32  and  _33
REMARK   15  A    between atoms: _36  and  _38
REMARK   16  A    between atoms: _38  and  _39
REMARK   17  A    between atoms: _38  and  _41
REMARK   18  A    between atoms: _41  and  _42
REMARK   19  A    between atoms: _45  and  _47
REMARK   20  A    between atoms: _47  and  _48
REMARK   21  A    between atoms: _47  and  _50
REMARK   22  A    between atoms: _50  and  _51
REMARK   23  A    between atoms: _54  and  _56
REMARK   24  A    between atoms: _56  and  _57
REMARK   25  A    between atoms: _59  and  _61
REMARK   26  A    between atoms: _61  and  _62
REMARK   27  A    between atoms: _65  and  _67
REMARK   28  A    between atoms: _67  and  _68
REMARK   29  A    between atoms: _67  and  _70
REMARK   30  A    between atoms: _70  and  _71
REMARK   31  A    between atoms: _74  and  _76
REMARK   32  A    between atoms: _76  and  _77
REMARK   33  A    between atoms: _76  and  _79
REMARK   34  A    between atoms: _79  and  _80
REMARK   35  A    between atoms: _83  and  _85
REMARK   36  A    between atoms: _85  and  _86
REMARK   37  A    between atoms: _85  and  _88
REMARK   38  A    between atoms: _88  and  _89
REMARK   39  A    between atoms: _92  and  _94
REMARK   40  A    between atoms: _94  and  _95
REMARK   41  A    between atoms: _94  and  _97
REMARK   42  A    between atoms: _100  and  _102
REMARK   43  A    between atoms: _102  and  _103
REMARK   44  A    between atoms: _102  and  _105
REMARK   45  A    between atoms: _105  and  _106
REMARK   46  A    between atoms: _109  and  _111
REMARK   47  A    between atoms: _111  and  _112
REMARK   48  A    between atoms: _111  and  _114
REMARK   49  A    between atoms: _114  and  _115
REMARK   50  A    between atoms: _115  and  _116
REMARK   51  A    between atoms: _116  and  _117
REMARK   52  A    between atoms: _117  and  _118
REMARK   53  A    between atoms: _122  and  _124
REMARK   54  A    between atoms: _124  and  _125
REMARK   55  A    between atoms: _124  and  _127
REMARK   56  A    between atoms: _127  and  _128
REMARK   57  A    between atoms: _128  and  _129
REMARK   58  A    between atoms: _131  and  _133
REMARK   59  A    between atoms: _133  and  _134
REMARK   60  A    between atoms: _133  and  _136
REMARK   61  A    between atoms: _136  and  _137
REMARK   62  A    between atoms: _140  and  _142
REMARK   63  A    between atoms: _142  and  _143
REMARK   64  A    between atoms: _145  and  _147
REMARK   65  A    between atoms: _147  and  _148
REMARK   66  A    between atoms: _150  and  _152
REMARK   67  A    between atoms: _152  and  _153
REMARK   68  A    between atoms: _152  and  _155
REMARK   69  A    between atoms: _158  and  _160
REMARK   70  A    between atoms: _160  and  _161
REMARK   71  A    between atoms: _163  and  _165
REMARK   72  A    between atoms: _165  and  _166
REMARK   73  A    between atoms: _168  and  _170
REMARK   74  A    between atoms: _170  and  _171
REMARK   75  A    between atoms: _170  and  _173
REMARK   76  A    between atoms: _173  and  _174
REMARK   77  A    between atoms: _180  and  _182
REMARK   78  A    between atoms: _182  and  _183
REMARK   79  A    between atoms: _182  and  _185
REMARK   80  A    between atoms: _185  and  _186
REMARK   81  A    between atoms: _189  and  _191
REMARK   82  A    between atoms: _191  and  _192
REMARK   83  A    between atoms: _191  and  _194
REMARK   84  A    between atoms: _197  and  _199
REMARK   85  A    between atoms: _199  and  _200
REMARK   86  A    between atoms: _199  and  _202
REMARK   87  A    between atoms: _202  and  _203
REMARK   88  A    between atoms: _207  and  _208
REMARK   89  A    between atoms: _213  and  _215
REMARK   90  A    between atoms: _215  and  _216
REMARK   91  A    between atoms: _215  and  _218
REMARK   92  A    between atoms: _218  and  _219
REMARK   93  A    between atoms: _223  and  _224
REMARK   94  A    between atoms: _229  and  _231
REMARK   95  A    between atoms: _231  and  _232
REMARK   96  A    between atoms: _231  and  _234
REMARK   97  A    between atoms: _237  and  _239
REMARK   98  A    between atoms: _239  and  _240
REMARK   99  A    between atoms: _239  and  _242
REMARK  100  A    between atoms: _242  and  _243
REMARK  101  A    between atoms: _248  and  _250
REMARK  102  A    between atoms: _250  and  _251
REMARK  103  A    between atoms: _250  and  _253
REMARK  104  A    between atoms: _253  and  _254
REMARK  105  A    between atoms: _257  and  _259
REMARK  106  A    between atoms: _259  and  _260
REMARK  107  A    between atoms: _259  and  _262
REMARK  108  A    between atoms: _262  and  _263
REMARK  109  A    between atoms: _266  and  _268
REMARK  110  A    between atoms: _268  and  _269
REMARK  111  A    between atoms: _271  and  _273
REMARK  112  A    between atoms: _273  and  _274
REMARK  113  A    between atoms: _273  and  _276
REMARK  114  A    between atoms: _276  and  _277
REMARK  115  A    between atoms: _277  and  _278
REMARK  116  A    between atoms: _278  and  _279
REMARK  117  A    between atoms: _288  and  _290
REMARK  118  A    between atoms: _290  and  _291
REMARK  119  A    between atoms: _290  and  _293
REMARK  120  A    between atoms: _293  and  _294
REMARK  121  A    between atoms: _299  and  _301
REMARK  122  A    between atoms: _301  and  _302
REMARK  123  A    between atoms: _301  and  _304
REMARK  124  A    between atoms: _304  and  _305
REMARK  125  A    between atoms: _305  and  _306
REMARK  126  A    between atoms: _306  and  _307
REMARK  127  A    between atoms: _316  and  _318
REMARK  128  A    between atoms: _318  and  _319
REMARK  129  A    between atoms: _318  and  _321
REMARK  130  A    between atoms: _321  and  _322
REMARK  131  A    between atoms: _325  and  _327
REMARK  132  A    between atoms: _327  and  _328
REMARK  133  A    between atoms: _327  and  _330
REMARK  134  A    between atoms: _330  and  _331
REMARK  135  A    between atoms: _334  and  _336
REMARK  136  A    between atoms: _336  and  _337
REMARK  137  A    between atoms: _336  and  _339
REMARK  138  A    between atoms: _339  and  _340
REMARK  139  A    between atoms: _343  and  _345
REMARK  140  A    between atoms: _345  and  _346
REMARK  141  A    between atoms: _345  and  _348
REMARK  142  A    between atoms: _348  and  _349
REMARK  143  A    between atoms: _352  and  _354
REMARK  144  A    between atoms: _354  and  _355
REMARK  145  A    between atoms: _357  and  _359
REMARK  146  A    between atoms: _359  and  _360
REMARK  147  A    between atoms: _363  and  _365
REMARK  148  A    between atoms: _365  and  _366
REMARK  149  A    between atoms: _365  and  _368
REMARK  150  A    between atoms: _368  and  _369
REMARK  151  A    between atoms: _372  and  _374
REMARK  152  A    between atoms: _374  and  _375
REMARK  153  A    between atoms: _374  and  _377
REMARK  154  A    between atoms: _377  and  _378
REMARK  155  A    between atoms: _381  and  _383
REMARK  156  A    between atoms: _383  and  _384
REMARK  157  A    between atoms: _383  and  _386
REMARK  158  A    between atoms: _386  and  _387
REMARK  159  A    between atoms: _390  and  _392
REMARK  160  A    between atoms: _392  and  _393
REMARK  161  A    between atoms: _392  and  _395
REMARK  162  A    between atoms: _398  and  _400
REMARK  163  A    between atoms: _400  and  _401
REMARK  164  A    between atoms: _400  and  _403
REMARK  165  A    between atoms: _403  and  _404
REMARK  166  A    between atoms: _407  and  _409
REMARK  167  A    between atoms: _409  and  _410
REMARK  168  A    between atoms: _409  and  _412
REMARK  169  A    between atoms: _412  and  _413
REMARK  170  A    between atoms: _413  and  _414
REMARK  171  A    between atoms: _414  and  _415
REMARK  172  A    between atoms: _415  and  _416
REMARK  173  A    between atoms: _420  and  _422
REMARK  174  A    between atoms: _422  and  _423
REMARK  175  A    between atoms: _422  and  _425
REMARK  176  A    between atoms: _425  and  _426
REMARK  177  A    between atoms: _426  and  _427
REMARK  178  A    between atoms: _429  and  _431
REMARK  179  A    between atoms: _431  and  _432
REMARK  180  A    between atoms: _431  and  _434
REMARK  181  A    between atoms: _434  and  _435
REMARK  182  A    between atoms: _438  and  _440
REMARK  183  A    between atoms: _440  and  _441
REMARK  184  A    between atoms: _443  and  _445
REMARK  185  A    between atoms: _445  and  _446
REMARK  186  A    between atoms: _448  and  _450
REMARK  187  A    between atoms: _450  and  _451
REMARK  188  A    between atoms: _450  and  _453
REMARK  189  A    between atoms: _456  and  _458
REMARK  190  A    between atoms: _458  and  _459
REMARK  191  A    between atoms: _461  and  _463
REMARK  192  A    between atoms: _463  and  _464
REMARK  193  A    between atoms: _466  and  _468
REMARK  194  A    between atoms: _468  and  _469
REMARK  195  A    between atoms: _468  and  _471
REMARK  196  A    between atoms: _471  and  _472
REMARK  197  A    between atoms: _478  and  _480
REMARK  198  A    between atoms: _480  and  _481
REMARK  199  A    between atoms: _480  and  _483
REMARK  200  A    between atoms: _483  and  _484
REMARK  201  A    between atoms: _487  and  _489
REMARK  202  A    between atoms: _489  and  _490
REMARK  203  A    between atoms: _489  and  _492
REMARK  204  A    between atoms: _495  and  _497
REMARK  205  A    between atoms: _497  and  _498
REMARK  206  A    between atoms: _497  and  _500
REMARK  207  A    between atoms: _500  and  _501
REMARK  208  A    between atoms: _504  and  _506
REMARK  209  A    between atoms: _506  and  _507
REMARK  210  A    between atoms: _506  and  _509
REMARK  211  A    between atoms: _509  and  _510
REMARK  212  A    between atoms: _514  and  _515
REMARK  213  A    between atoms: _520  and  _522
REMARK  214  A    between atoms: _522  and  _523
REMARK  215  A    between atoms: _522  and  _525
REMARK  216  A    between atoms: _528  and  _530
REMARK  217  A    between atoms: _530  and  _531
REMARK  218  A    between atoms: _530  and  _533
REMARK  219  A    between atoms: _533  and  _534
REMARK  220  A    between atoms: _539  and  _541
REMARK  221  A    between atoms: _541  and  _542
REMARK  222  A    between atoms: _541  and  _544
REMARK  223  A    between atoms: _544  and  _545
REMARK  224  A    between atoms: _548  and  _550
REMARK  225  A    between atoms: _550  and  _551
REMARK  226  A    between atoms: _550  and  _553
REMARK  227  A    between atoms: _553  and  _554
REMARK  228  A    between atoms: _557  and  _559
REMARK  229  A    between atoms: _559  and  _560
REMARK  230  A    between atoms: _562  and  _564
REMARK  231  A    between atoms: _564  and  _565
REMARK  232  A    between atoms: _564  and  _567
REMARK  233  A    between atoms: _567  and  _568
REMARK  234  A    between atoms: _568  and  _569
REMARK  235  A    between atoms: _569  and  _570
REMARK  236  A    between atoms: _579  and  _581
REMARK  237  A    between atoms: _581  and  _582
REMARK  238  A    between atoms: _581  and  _584
REMARK  239  A    between atoms: _584  and  _585
REMARK                            x       y       z     vdW  Elec       q    Type
REMARK                         _______ _______ _______ _____ _____    ______ ____
ROOT
ATOM      1  C   ILE A   5      14.361  22.217  27.071  0.00  0.00    +0.241 C 
ATOM      2  O   ILE A   5      13.940  21.081  27.342  0.00  0.00    -0.273 OA
ATOM      3  N   ILE A   6      13.707  23.343  27.337  0.00  0.00    -0.297 N 
ATOM      4  H   ILE A   6      14.195  24.255  27.225  0.00  0.00    +0.150 HD
ENDROOT
BRANCH   1   5
ATOM      5  CA  ILE A   5      15.730  22.374  26.394  0.00  0.00    +0.149 C 
BRANCH   5   8
ATOM      6  C   ASN A   4      17.824  22.277  27.674  0.00  0.00    +0.241 C 
ATOM      7  O   ASN A   4      18.026  23.521  27.638  0.00  0.00    -0.273 OA
ATOM      8  N   ILE A   5      16.752  21.687  27.171  0.00  0.00    -0.297 N 
ATOM      9  H   ILE A   5      16.632  20.668  27.341  0.00  0.00    +0.150 HD
BRANCH   6  10
ATOM     10  CA  ASN A   4      18.877  21.432  28.337  0.00  0.00    +0.158 C 
BRANCH  10  12
ATOM     11  C   VAL A   3      20.465  21.470  26.542  0.00  0.00    +0.241 C 
ATOM     12  N   ASN A   4      20.168  21.781  27.769  0.00  0.00    -0.297 N 
ATOM     13  H   ASN A   4      20.865  22.287  28.352  0.00  0.00    +0.150 HD
ATOM     14  O   VAL A   3      19.711  20.753  25.849  0.00  0.00    -0.273 OA
BRANCH  11  15
ATOM     15  CA  VAL A   3      21.769  21.988  25.932  0.00  0.00    +0.149 C 
BRANCH  15  18
ATOM     16  C   PRO A   2      23.336  20.923  24.380  0.00  0.00    +0.241 C 
ATOM     17  O   PRO A   2      24.337  21.449  24.889  0.00  0.00    -0.273 OA
ATOM     18  N   VAL A   3      22.121  21.133  24.802  0.00  0.00    -0.297 N 
ATOM     19  H   VAL A   3      21.346  20.657  24.297  0.00  0.00    +0.150 HD
BRANCH  16  23
ATOM     20  C   THR A   1      22.273  18.056  23.858  0.00  0.00    +0.244 C 
ATOM     21  O   THR A   1      22.966  17.927  24.874  0.00  0.00    -0.273 OA
ATOM     22  N   PRO A   2      22.471  19.017  22.975  0.00  0.00    -0.272 N 
ATOM     23  CA  PRO A   2      23.539  19.991  23.191  0.00  0.00    +0.152 C 
ATOM     24  CB  PRO A   2      23.523  20.851  21.935  0.00  0.00    +0.031 C 
ATOM     25  CG  PRO A   2      22.125  20.746  21.436  0.00  0.00    +0.024 C 
ATOM     26  CD  PRO A   2      21.758  19.306  21.718  0.00  0.00    +0.094 C 
BRANCH  20  27
ATOM     27  CA  THR A   1      21.159  17.052  23.640  0.00  0.00    +0.172 C 
BRANCH  27  28
ATOM     28  N   THR A   1      21.658  15.783  24.150  0.00  0.00    -0.236 NA
ATOM     29  H   THR A   1      21.920  15.699  25.153  0.00  0.00    +0.142 HD
ENDBRANCH  27  28
BRANCH  27  30
ATOM     30  CB  THR A   1      19.844  17.479  24.350  0.00  0.00    +0.135 C 
ATOM     31  CG2 THR A   1      19.919  17.532  25.860  0.00  0.00    +0.034 C 
BRANCH  30  32
ATOM     32  OG1 THR A   1      19.534  18.795  23.896  0.00  0.00    -0.383 OA
ATOM     33  HG1 THR A   1      20.275  19.408  24.133  0.00  0.00    +0.210 HD
ENDBRANCH  30  32
ENDBRANCH  27  30
ENDBRANCH  20  27
ENDBRANCH  16  23
ENDBRANCH  15  18
BRANCH  15  34
ATOM     34  CB  VAL A   3      21.621  23.449  25.498  0.00  0.00    +0.027 C 
ATOM     35  CG2 VAL A   3      21.691  24.341  26.713  0.00  0.00    +0.002 C 
ATOM     36  CG1 VAL A   3      20.313  23.644  24.743  0.00  0.00    +0.002 C 
ENDBRANCH  15  34
ENDBRANCH  11  15
ENDBRANCH  10  12
BRANCH  10  37
ATOM     37  CB  ASN A   4      18.834  21.659  29.828  0.00  0.00    +0.114 C 
BRANCH  37  38
ATOM     38  CG  ASN A   4      19.834  20.772  30.563  0.00  0.00    +0.222 C 
ATOM     39  ND2 ASN A   4      20.428  21.323  31.581  0.00  0.00    -0.329 N 
ATOM     40 HD21 ASN A   4      21.079  20.764  32.168  0.00  0.00    +0.145 HD
ATOM     41 HD22 ASN A   4      20.252  22.323  31.807  0.00  0.00    +0.145 HD
ATOM     42  OD1 ASN A   4      19.987  19.591  30.224  0.00  0.00    -0.275 OA
ENDBRANCH  37  38
ENDBRANCH  10  37
ENDBRANCH   6  10
ENDBRANCH   5   8
BRANCH   5  43
ATOM     43  CB  ILE A   5      15.676  21.789  24.951  0.00  0.00    +0.027 C 
ATOM     44  CG2 ILE A   5      14.412  22.238  24.251  0.00  0.00    +0.002 C 
BRANCH  43  45
ATOM     45  CG1 ILE A   5      16.934  22.053  24.141  0.00  0.00    +0.002 C 
ATOM     46  CD1 ILE A   5      17.042  21.163  22.907  0.00  0.00    +0.000 C 
ENDBRANCH  43  45
ENDBRANCH   5  43
ENDBRANCH   1   5
BRANCH   3  47
ATOM     47  CA  ILE A   6      12.338  23.326  27.777  0.00  0.00    +0.149 C 
BRANCH  47  48
ATOM     48  C   ILE A   6      11.451  23.587  26.557  0.00  0.00    +0.241 C 
ATOM     49  N   GLY A   7      10.689  22.539  26.164  0.00  0.00    -0.295 N 
ATOM     50  H   GLY A   7      10.708  21.655  26.712  0.00  0.00    +0.150 HD
ATOM     51  O   ILE A   6      11.501  24.674  25.983  0.00  0.00    -0.273 OA
BRANCH  49  52
ATOM     52  CA  GLY A   7       9.843  22.637  24.982  0.00  0.00    +0.176 C 
BRANCH  52  53
ATOM     53  C   GLY A   7       8.398  22.912  25.286  0.00  0.00    +0.243 C 
ATOM     54  O   GLY A   7       8.012  23.169  26.431  0.00  0.00    -0.273 OA
ATOM     55  N   ARG A   8       7.584  22.855  24.217  0.00  0.00    -0.297 N 
ATOM     56  H   ARG A   8       7.926  22.477  23.311  0.00  0.00    +0.150 HD
BRANCH  55  57
ATOM     57  CA  ARG A   8       6.217  23.332  24.352  0.00  0.00    +0.149 C 
BRANCH  57  58
ATOM     58  C   ARG A   8       5.415  22.549  25.350  0.00  0.00    +0.241 C 
ATOM     59  O   ARG A   8       4.506  23.134  25.938  0.00  0.00    -0.273 OA
ATOM     60  N   ASN A   9       5.690  21.259  25.547  0.00  0.00    -0.298 N 
ATOM     61  H   ASN A   9       6.474  20.805  25.036  0.00  0.00    +0.150 HD
BRANCH  60  62
ATOM     62  CA  ASN A   9       4.873  20.483  26.495  0.00  0.00    +0.146 C 
BRANCH  62  63
ATOM     63  C   ASN A   9       4.947  21.106  27.895  0.00  0.00    +0.227 C 
ATOM     64  O   ASN A   9       3.934  21.071  28.582  0.00  0.00    -0.286 OA
ENDBRANCH  62  63
BRANCH  62  65
ATOM     65  CB  ASN A   9       5.296  19.016  26.565  0.00  0.00    +0.112 C 
BRANCH  65  66
ATOM     66  CG  ASN A   9       6.642  18.810  27.228  0.00  0.00    +0.222 C 
ATOM     67  ND2 ASN A   9       6.612  17.917  28.231  0.00  0.00    -0.329 N 
ATOM     68 HD21 ASN A   9       7.474  17.721  28.779  0.00  0.00    +0.145 HD
ATOM     69 HD22 ASN A   9       5.727  17.422  28.460  0.00  0.00    +0.145 HD
ATOM     70  OD1 ASN A   9       7.619  19.469  26.848  0.00  0.00    -0.275 OA
ENDBRANCH  65  66
ENDBRANCH  62  65
ENDBRANCH  60  62
ENDBRANCH  57  58
BRANCH  57  71
ATOM     71  CB  ARG A   8       5.543  23.313  22.983  0.00  0.00    +0.033 C 
BRANCH  71  72
ATOM     72  CG  ARG A   8       6.141  24.385  22.038  0.00  0.00    +0.045 C 
BRANCH  72  73
ATOM     73  CD  ARG A   8       5.307  24.547  20.746  0.00  0.00    +0.174 C 
BRANCH  73  74
ATOM     74  NE  ARG A   8       5.313  23.269  19.984  0.00  0.00    -0.265 N 
ATOM     75  CZ  ARG A   8       4.343  22.373  19.981  0.00  0.00    +0.342 C 
ATOM     76  NH2 ARG A   8       3.185  22.518  20.672  0.00  0.00    -0.292 N 
ATOM     77 HH21 ARG A   8       3.024  23.371  21.244  0.00  0.00    +0.255 HD
ATOM     78 HH22 ARG A   8       2.458  21.776  20.630  0.00  0.00    +0.255 HD
ATOM     79  NH1 ARG A   8       4.525  21.263  19.250  0.00  0.00    -0.292 N 
ATOM     80 HH11 ARG A   8       3.785  20.533  19.221  0.00  0.00    +0.255 HD
ATOM     81 HH12 ARG A   8       5.406  21.133  18.713  0.00  0.00    +0.255 HD
ATOM     82  HE  ARG A   8       6.152  23.064  19.405  0.00  0.00    +0.259 HD
ENDBRANCH  73  74
ENDBRANCH  72  73
ENDBRANCH  71  72
ENDBRANCH  57  71
ENDBRANCH  55  57
ENDBRANCH  52  53
ENDBRANCH  49  52
ENDBRANCH  47  48
BRANCH  47  83
ATOM     83  CB  ILE A   6      12.049  24.363  28.854  0.00  0.00    +0.027 C 
ATOM     84  CG2 ILE A   6      10.579  24.281  29.282  0.00  0.00    +0.002 C 
BRANCH  83  85
ATOM     85  CG1 ILE A   6      12.984  24.234  30.036  0.00  0.00    +0.002 C 
ATOM     86  CD1 ILE A   6      12.961  22.911  30.704  0.00  0.00    +0.000 C 
ENDBRANCH  83  85
ENDBRANCH  47  83
ENDBRANCH   3  47
TORSDOF 32
REMARK  Name = ../refined-set-2016/3nu5/3nu5_pocket.pdb
REMARK  239 active torsions:
REMARK  status: ('A' for Active; 'I' for Inactive)
REMARK    1  A    between atoms: _1  and  _3
REMARK    2  A    between atoms: _3  and  _4
REMARK    3  A    between atoms: _3  and  _6
REMARK    4  A    between atoms: _6  and  _7
REMARK    5  A    between atoms: _7  and  _8
REMARK    6  A    between atoms: _8  and  _9
REMARK    7  A    between atoms: _18  and  _20
REMARK    8  A    between atoms: _20  and  _21
REMARK    9  A    between atoms: _20  and  _23
REMARK   10  A    between atoms: _23  and  _24
REMARK   11  A    between atoms: _27  and  _29
REMARK   12  A    between atoms: _29  and  _30
REMARK   13  A    between atoms: _29  and  _32
REMARK   14  A    between atoms: _32  and  _33
REMARK   15  A    between atoms: _36  and  _38
REMARK   16  A    between atoms: _38  and  _39
REMARK   17  A    between atoms: _38  and  _41
REMARK   18  A    between atoms: _41  and  _42
REMARK   19  A    between atoms: _45  and  _47
REMARK   20  A    between atoms: _47  and  _48
REMARK   21  A    between atoms: _47  and  _50
REMARK   22  A    between atoms: _50  and  _51
REMARK   23  A    between atoms: _54  and  _56
REMARK   24  A    between atoms: _56  and  _57
REMARK   25  A    between atoms: _59  and  _61
REMARK   26  A    between atoms: _61  and  _62
REMARK   27  A    between atoms: _65  and  _67
REMARK   28  A    between atoms: _67  and  _68
REMARK   29  A    between atoms: _67  and  _70
REMARK   30  A    between atoms: _70  and  _71
REMARK   31  A    between atoms: _74  and  _76
REMARK   32  A    between atoms: _76  and  _77
REMARK   33  A    between atoms: _76  and  _79
REMARK   34  A    between atoms: _79  and  _80
REMARK   35  A    between atoms: _83  and  _85
REMARK   36  A    between atoms: _85  and  _86
REMARK   37  A    between atoms: _85  and  _88
REMARK   38  A    between atoms: _88  and  _89
REMARK   39  A    between atoms: _92  and  _94
REMARK   40  A    between atoms: _94  and  _95
REMARK   41  A    between atoms: _94  and  _97
REMARK   42  A    between atoms: _100  and  _102
REMARK   43  A    between atoms: _102  and  _103
REMARK   44  A    between atoms: _102  and  _105
REMARK   45  A    between atoms: _105  and  _106
REMARK   46  A    between atoms: _109  and  _111
REMARK   47  A    between atoms: _111  and  _112
REMARK   48  A    between atoms: _111  and  _114
REMARK   49  A    between atoms: _114  and  _115
REMARK   50  A    between atoms: _115  and  _116
REMARK   51  A    between atoms: _116  and  _117
REMARK   52  A    between atoms: _117  and  _118
REMARK   53  A    between atoms: _122  and  _124
REMARK   54  A    between atoms: _124  and  _125
REMARK   55  A    between atoms: _124  and  _127
REMARK   56  A    between atoms: _127  and  _128
REMARK   57  A    between atoms: _128  and  _129
REMARK   58  A    between atoms: _131  and  _133
REMARK   59  A    between atoms: _133  and  _134
REMARK   60  A    between atoms: _133  and  _136
REMARK   61  A    between atoms: _136  and  _137
REMARK   62  A    between atoms: _140  and  _142
REMARK   63  A    between atoms: _142  and  _143
REMARK   64  A    between atoms: _145  and  _147
REMARK   65  A    between atoms: _147  and  _148
REMARK   66  A    between atoms: _150  and  _152
REMARK   67  A    between atoms: _152  and  _153
REMARK   68  A    between atoms: _152  and  _155
REMARK   69  A    between atoms: _158  and  _160
REMARK   70  A    between atoms: _160  and  _161
REMARK   71  A    between atoms: _163  and  _165
REMARK   72  A    between atoms: _165  and  _166
REMARK   73  A    between atoms: _168  and  _170
REMARK   74  A    between atoms: _170  and  _171
REMARK   75  A    between atoms: _170  and  _173
REMARK   76  A    between atoms: _173  and  _174
REMARK   77  A    between atoms: _180  and  _182
REMARK   78  A    between atoms: _182  and  _183
REMARK   79  A    between atoms: _182  and  _185
REMARK   80  A    between atoms: _185  and  _186
REMARK   81  A    between atoms: _189  and  _191
REMARK   82  A    between atoms: _191  and  _192
REMARK   83  A    between atoms: _191  and  _194
REMARK   84  A    between atoms: _197  and  _199
REMARK   85  A    between atoms: _199  and  _200
REMARK   86  A    between atoms: _199  and  _202
REMARK   87  A    between atoms: _202  and  _203
REMARK   88  A    between atoms: _207  and  _208
REMARK   89  A    between atoms: _213  and  _215
REMARK   90  A    between atoms: _215  and  _216
REMARK   91  A    between atoms: _215  and  _218
REMARK   92  A    between atoms: _218  and  _219
REMARK   93  A    between atoms: _223  and  _224
REMARK   94  A    between atoms: _229  and  _231
REMARK   95  A    between atoms: _231  and  _232
REMARK   96  A    between atoms: _231  and  _234
REMARK   97  A    between atoms: _237  and  _239
REMARK   98  A    between atoms: _239  and  _240
REMARK   99  A    between atoms: _239  and  _242
REMARK  100  A    between atoms: _242  and  _243
REMARK  101  A    between atoms: _248  and  _250
REMARK  102  A    between atoms: _250  and  _251
REMARK  103  A    between atoms: _250  and  _253
REMARK  104  A    between atoms: _253  and  _254
REMARK  105  A    between atoms: _257  and  _259
REMARK  106  A    between atoms: _259  and  _260
REMARK  107  A    between atoms: _259  and  _262
REMARK  108  A    between atoms: _262  and  _263
REMARK  109  A    between atoms: _266  and  _268
REMARK  110  A    between atoms: _268  and  _269
REMARK  111  A    between atoms: _271  and  _273
REMARK  112  A    between atoms: _273  and  _274
REMARK  113  A    between atoms: _273  and  _276
REMARK  114  A    between atoms: _276  and  _277
REMARK  115  A    between atoms: _277  and  _278
REMARK  116  A    between atoms: _278  and  _279
REMARK  117  A    between atoms: _288  and  _290
REMARK  118  A    between atoms: _290  and  _291
REMARK  119  A    between atoms: _290  and  _293
REMARK  120  A    between atoms: _293  and  _294
REMARK  121  A    between atoms: _299  and  _301
REMARK  122  A    between atoms: _301  and  _302
REMARK  123  A    between atoms: _301  and  _304
REMARK  124  A    between atoms: _304  and  _305
REMARK  125  A    between atoms: _305  and  _306
REMARK  126  A    between atoms: _306  and  _307
REMARK  127  A    between atoms: _316  and  _318
REMARK  128  A    between atoms: _318  and  _319
REMARK  129  A    between atoms: _318  and  _321
REMARK  130  A    between atoms: _321  and  _322
REMARK  131  A    between atoms: _325  and  _327
REMARK  132  A    between atoms: _327  and  _328
REMARK  133  A    between atoms: _327  and  _330
REMARK  134  A    between atoms: _330  and  _331
REMARK  135  A    between atoms: _334  and  _336
REMARK  136  A    between atoms: _336  and  _337
REMARK  137  A    between atoms: _336  and  _339
REMARK  138  A    between atoms: _339  and  _340
REMARK  139  A    between atoms: _343  and  _345
REMARK  140  A    between atoms: _345  and  _346
REMARK  141  A    between atoms: _345  and  _348
REMARK  142  A    between atoms: _348  and  _349
REMARK  143  A    between atoms: _352  and  _354
REMARK  144  A    between atoms: _354  and  _355
REMARK  145  A    between atoms: _357  and  _359
REMARK  146  A    between atoms: _359  and  _360
REMARK  147  A    between atoms: _363  and  _365
REMARK  148  A    between atoms: _365  and  _366
REMARK  149  A    between atoms: _365  and  _368
REMARK  150  A    between atoms: _368  and  _369
REMARK  151  A    between atoms: _372  and  _374
REMARK  152  A    between atoms: _374  and  _375
REMARK  153  A    between atoms: _374  and  _377
REMARK  154  A    between atoms: _377  and  _378
REMARK  155  A    between atoms: _381  and  _383
REMARK  156  A    between atoms: _383  and  _384
REMARK  157  A    between atoms: _383  and  _386
REMARK  158  A    between atoms: _386  and  _387
REMARK  159  A    between atoms: _390  and  _392
REMARK  160  A    between atoms: _392  and  _393
REMARK  161  A    between atoms: _392  and  _395
REMARK  162  A    between atoms: _398  and  _400
REMARK  163  A    between atoms: _400  and  _401
REMARK  164  A    between atoms: _400  and  _403
REMARK  165  A    between atoms: _403  and  _404
REMARK  166  A    between atoms: _407  and  _409
REMARK  167  A    between atoms: _409  and  _410
REMARK  168  A    between atoms: _409  and  _412
REMARK  169  A    between atoms: _412  and  _413
REMARK  170  A    between atoms: _413  and  _414
REMARK  171  A    between atoms: _414  and  _415
REMARK  172  A    between atoms: _415  and  _416
REMARK  173  A    between atoms: _420  and  _422
REMARK  174  A    between atoms: _422  and  _423
REMARK  175  A    between atoms: _422  and  _425
REMARK  176  A    between atoms: _425  and  _426
REMARK  177  A    between atoms: _426  and  _427
REMARK  178  A    between atoms: _429  and  _431
REMARK  179  A    between atoms: _431  and  _432
REMARK  180  A    between atoms: _431  and  _434
REMARK  181  A    between atoms: _434  and  _435
REMARK  182  A    between atoms: _438  and  _440
REMARK  183  A    between atoms: _440  and  _441
REMARK  184  A    between atoms: _443  and  _445
REMARK  185  A    between atoms: _445  and  _446
REMARK  186  A    between atoms: _448  and  _450
REMARK  187  A    between atoms: _450  and  _451
REMARK  188  A    between atoms: _450  and  _453
REMARK  189  A    between atoms: _456  and  _458
REMARK  190  A    between atoms: _458  and  _459
REMARK  191  A    between atoms: _461  and  _463
REMARK  192  A    between atoms: _463  and  _464
REMARK  193  A    between atoms: _466  and  _468
REMARK  194  A    between atoms: _468  and  _469
REMARK  195  A    between atoms: _468  and  _471
REMARK  196  A    between atoms: _471  and  _472
REMARK  197  A    between atoms: _478  and  _480
REMARK  198  A    between atoms: _480  and  _481
REMARK  199  A    between atoms: _480  and  _483
REMARK  200  A    between atoms: _483  and  _484
REMARK  201  A    between atoms: _487  and  _489
REMARK  202  A    between atoms: _489  and  _490
REMARK  203  A    between atoms: _489  and  _492
REMARK  204  A    between atoms: _495  and  _497
REMARK  205  A    between atoms: _497  and  _498
REMARK  206  A    between atoms: _497  and  _500
REMARK  207  A    between atoms: _500  and  _501
REMARK  208  A    between atoms: _504  and  _506
REMARK  209  A    between atoms: _506  and  _507
REMARK  210  A    between atoms: _506  and  _509
REMARK  211  A    between atoms: _509  and  _510
REMARK  212  A    between atoms: _514  and  _515
REMARK  213  A    between atoms: _520  and  _522
REMARK  214  A    between atoms: _522  and  _523
REMARK  215  A    between atoms: _522  and  _525
REMARK  216  A    between atoms: _528  and  _530
REMARK  217  A    between atoms: _530  and  _531
REMARK  218  A    between atoms: _530  and  _533
REMARK  219  A    between atoms: _533  and  _534
REMARK  220  A    between atoms: _539  and  _541
REMARK  221  A    between atoms: _541  and  _542
REMARK  222  A    between atoms: _541  and  _544
REMARK  223  A    between atoms: _544  and  _545
REMARK  224  A    between atoms: _548  and  _550
REMARK  225  A    between atoms: _550  and  _551
REMARK  226  A    between atoms: _550  and  _553
REMARK  227  A    between atoms: _553  and  _554
REMARK  228  A    between atoms: _557  and  _559
REMARK  229  A    between atoms: _559  and  _560
REMARK  230  A    between atoms: _562  and  _564
REMARK  231  A    between atoms: _564  and  _565
REMARK  232  A    between atoms: _564  and  _567
REMARK  233  A    between atoms: _567  and  _568
REMARK  234  A    between atoms: _568  and  _569
REMARK  235  A    between atoms: _569  and  _570
REMARK  236  A    between atoms: _579  and  _581
REMARK  237  A    between atoms: _581  and  _582
REMARK  238  A    between atoms: _581  and  _584
REMARK  239  A    between atoms: _584  and  _585
REMARK                            x       y       z     vdW  Elec       q    Type
REMARK                         _______ _______ _______ _____ _____    ______ ____
ROOT
ATOM      1  O   HOH     1      18.372  30.713  21.383  0.00  0.00    +0.000 OA
ENDROOT
TORSDOF 0
REMARK  Name = ../refined-set-2016/3nu5/3nu5_pocket.pdb
REMARK  239 active torsions:
REMARK  status: ('A' for Active; 'I' for Inactive)
REMARK    1  A    between atoms: _1  and  _3
REMARK    2  A    between atoms: _3  and  _4
REMARK    3  A    between atoms: _3  and  _6
REMARK    4  A    between atoms: _6  and  _7
REMARK    5  A    between atoms: _7  and  _8
REMARK    6  A    between atoms: _8  and  _9
REMARK    7  A    between atoms: _18  and  _20
REMARK    8  A    between atoms: _20  and  _21
REMARK    9  A    between atoms: _20  and  _23
REMARK   10  A    between atoms: _23  and  _24
REMARK   11  A    between atoms: _27  and  _29
REMARK   12  A    between atoms: _29  and  _30
REMARK   13  A    between atoms: _29  and  _32
REMARK   14  A    between atoms: _32  and  _33
REMARK   15  A    between atoms: _36  and  _38
REMARK   16  A    between atoms: _38  and  _39
REMARK   17  A    between atoms: _38  and  _41
REMARK   18  A    between atoms: _41  and  _42
REMARK   19  A    between atoms: _45  and  _47
REMARK   20  A    between atoms: _47  and  _48
REMARK   21  A    between atoms: _47  and  _50
REMARK   22  A    between atoms: _50  and  _51
REMARK   23  A    between atoms: _54  and  _56
REMARK   24  A    between atoms: _56  and  _57
REMARK   25  A    between atoms: _59  and  _61
REMARK   26  A    between atoms: _61  and  _62
REMARK   27  A    between atoms: _65  and  _67
REMARK   28  A    between atoms: _67  and  _68
REMARK   29  A    between atoms: _67  and  _70
REMARK   30  A    between atoms: _70  and  _71
REMARK   31  A    between atoms: _74  and  _76
REMARK   32  A    between atoms: _76  and  _77
REMARK   33  A    between atoms: _76  and  _79
REMARK   34  A    between atoms: _79  and  _80
REMARK   35  A    between atoms: _83  and  _85
REMARK   36  A    between atoms: _85  and  _86
REMARK   37  A    between atoms: _85  and  _88
REMARK   38  A    between atoms: _88  and  _89
REMARK   39  A    between atoms: _92  and  _94
REMARK   40  A    between atoms: _94  and  _95
REMARK   41  A    between atoms: _94  and  _97
REMARK   42  A    between atoms: _100  and  _102
REMARK   43  A    between atoms: _102  and  _103
REMARK   44  A    between atoms: _102  and  _105
REMARK   45  A    between atoms: _105  and  _106
REMARK   46  A    between atoms: _109  and  _111
REMARK   47  A    between atoms: _111  and  _112
REMARK   48  A    between atoms: _111  and  _114
REMARK   49  A    between atoms: _114  and  _115
REMARK   50  A    between atoms: _115  and  _116
REMARK   51  A    between atoms: _116  and  _117
REMARK   52  A    between atoms: _117  and  _118
REMARK   53  A    between atoms: _122  and  _124
REMARK   54  A    between atoms: _124  and  _125
REMARK   55  A    between atoms: _124  and  _127
REMARK   56  A    between atoms: _127  and  _128
REMARK   57  A    between atoms: _128  and  _129
REMARK   58  A    between atoms: _131  and  _133
REMARK   59  A    between atoms: _133  and  _134
REMARK   60  A    between atoms: _133  and  _136
REMARK   61  A    between atoms: _136  and  _137
REMARK   62  A    between atoms: _140  and  _142
REMARK   63  A    between atoms: _142  and  _143
REMARK   64  A    between atoms: _145  and  _147
REMARK   65  A    between atoms: _147  and  _148
REMARK   66  A    between atoms: _150  and  _152
REMARK   67  A    between atoms: _152  and  _153
REMARK   68  A    between atoms: _152  and  _155
REMARK   69  A    between atoms: _158  and  _160
REMARK   70  A    between atoms: _160  and  _161
REMARK   71  A    between atoms: _163  and  _165
REMARK   72  A    between atoms: _165  and  _166
REMARK   73  A    between atoms: _168  and  _170
REMARK   74  A    between atoms: _170  and  _171
REMARK   75  A    between atoms: _170  and  _173
REMARK   76  A    between atoms: _173  and  _174
REMARK   77  A    between atoms: _180  and  _182
REMARK   78  A    between atoms: _182  and  _183
REMARK   79  A    between atoms: _182  and  _185
REMARK   80  A    between atoms: _185  and  _186
REMARK   81  A    between atoms: _189  and  _191
REMARK   82  A    between atoms: _191  and  _192
REMARK   83  A    between atoms: _191  and  _194
REMARK   84  A    between atoms: _197  and  _199
REMARK   85  A    between atoms: _199  and  _200
REMARK   86  A    between atoms: _199  and  _202
REMARK   87  A    between atoms: _202  and  _203
REMARK   88  A    between atoms: _207  and  _208
REMARK   89  A    between atoms: _213  and  _215
REMARK   90  A    between atoms: _215  and  _216
REMARK   91  A    between atoms: _215  and  _218
REMARK   92  A    between atoms: _218  and  _219
REMARK   93  A    between atoms: _223  and  _224
REMARK   94  A    between atoms: _229  and  _231
REMARK   95  A    between atoms: _231  and  _232
REMARK   96  A    between atoms: _231  and  _234
REMARK   97  A    between atoms: _237  and  _239
REMARK   98  A    between atoms: _239  and  _240
REMARK   99  A    between atoms: _239  and  _242
REMARK  100  A    between atoms: _242  and  _243
REMARK  101  A    between atoms: _248  and  _250
REMARK  102  A    between atoms: _250  and  _251
REMARK  103  A    between atoms: _250  and  _253
REMARK  104  A    between atoms: _253  and  _254
REMARK  105  A    between atoms: _257  and  _259
REMARK  106  A    between atoms: _259  and  _260
REMARK  107  A    between atoms: _259  and  _262
REMARK  108  A    between atoms: _262  and  _263
REMARK  109  A    between atoms: _266  and  _268
REMARK  110  A    between atoms: _268  and  _269
REMARK  111  A    between atoms: _271  and  _273
REMARK  112  A    between atoms: _273  and  _274
REMARK  113  A    between atoms: _273  and  _276
REMARK  114  A    between atoms: _276  and  _277
REMARK  115  A    between atoms: _277  and  _278
REMARK  116  A    between atoms: _278  and  _279
REMARK  117  A    between atoms: _288  and  _290
REMARK  118  A    between atoms: _290  and  _291
REMARK  119  A    between atoms: _290  and  _293
REMARK  120  A    between atoms: _293  and  _294
REMARK  121  A    between atoms: _299  and  _301
REMARK  122  A    between atoms: _301  and  _302
REMARK  123  A    between atoms: _301  and  _304
REMARK  124  A    between atoms: _304  and  _305
REMARK  125  A    between atoms: _305  and  _306
REMARK  126  A    between atoms: _306  and  _307
REMARK  127  A    between atoms: _316  and  _318
REMARK  128  A    between atoms: _318  and  _319
REMARK  129  A    between atoms: _318  and  _321
REMARK  130  A    between atoms: _321  and  _322
REMARK  131  A    between atoms: _325  and  _327
REMARK  132  A    between atoms: _327  and  _328
REMARK  133  A    between atoms: _327  and  _330
REMARK  134  A    between atoms: _330  and  _331
REMARK  135  A    between atoms: _334  and  _336
REMARK  136  A    between atoms: _336  and  _337
REMARK  137  A    between atoms: _336  and  _339
REMARK  138  A    between atoms: _339  and  _340
REMARK  139  A    between atoms: _343  and  _345
REMARK  140  A    between atoms: _345  and  _346
REMARK  141  A    between atoms: _345  and  _348
REMARK  142  A    between atoms: _348  and  _349
REMARK  143  A    between atoms: _352  and  _354
REMARK  144  A    between atoms: _354  and  _355
REMARK  145  A    between atoms: _357  and  _359
REMARK  146  A    between atoms: _359  and  _360
REMARK  147  A    between atoms: _363  and  _365
REMARK  148  A    between atoms: _365  and  _366
REMARK  149  A    between atoms: _365  and  _368
REMARK  150  A    between atoms: _368  and  _369
REMARK  151  A    between atoms: _372  and  _374
REMARK  152  A    between atoms: _374  and  _375
REMARK  153  A    between atoms: _374  and  _377
REMARK  154  A    between atoms: _377  and  _378
REMARK  155  A    between atoms: _381  and  _383
REMARK  156  A    between atoms: _383  and  _384
REMARK  157  A    between atoms: _383  and  _386
REMARK  158  A    between atoms: _386  and  _387
REMARK  159  A    between atoms: _390  and  _392
REMARK  160  A    between atoms: _392  and  _393
REMARK  161  A    between atoms: _392  and  _395
REMARK  162  A    between atoms: _398  and  _400
REMARK  163  A    between atoms: _400  and  _401
REMARK  164  A    between atoms: _400  and  _403
REMARK  165  A    between atoms: _403  and  _404
REMARK  166  A    between atoms: _407  and  _409
REMARK  167  A    between atoms: _409  and  _410
REMARK  168  A    between atoms: _409  and  _412
REMARK  169  A    between atoms: _412  and  _413
REMARK  170  A    between atoms: _413  and  _414
REMARK  171  A    between atoms: _414  and  _415
REMARK  172  A    between atoms: _415  and  _416
REMARK  173  A    between atoms: _420  and  _422
REMARK  174  A    between atoms: _422  and  _423
REMARK  175  A    between atoms: _422  and  _425
REMARK  176  A    between atoms: _425  and  _426
REMARK  177  A    between atoms: _426  and  _427
REMARK  178  A    between atoms: _429  and  _431
REMARK  179  A    between atoms: _431  and  _432
REMARK  180  A    between atoms: _431  and  _434
REMARK  181  A    between atoms: _434  and  _435
REMARK  182  A    between atoms: _438  and  _440
REMARK  183  A    between atoms: _440  and  _441
REMARK  184  A    between atoms: _443  and  _445
REMARK  185  A    between atoms: _445  and  _446
REMARK  186  A    between atoms: _448  and  _450
REMARK  187  A    between atoms: _450  and  _451
REMARK  188  A    between atoms: _450  and  _453
REMARK  189  A    between atoms: _456  and  _458
REMARK  190  A    between atoms: _458  and  _459
REMARK  191  A    between atoms: _461  and  _463
REMARK  192  A    between atoms: _463  and  _464
REMARK  193  A    between atoms: _466  and  _468
REMARK  194  A    between atoms: _468  and  _469
REMARK  195  A    between atoms: _468  and  _471
REMARK  196  A    between atoms: _471  and  _472
REMARK  197  A    between atoms: _478  and  _480
REMARK  198  A    between atoms: _480  and  _481
REMARK  199  A    between atoms: _480  and  _483
REMARK  200  A    between atoms: _483  and  _484
REMARK  201  A    between atoms: _487  and  _489
REMARK  202  A    between atoms: _489  and  _490
REMARK  203  A    between atoms: _489  and  _492
REMARK  204  A    between atoms: _495  and  _497
REMARK  205  A    between atoms: _497  and  _498
REMARK  206  A    between atoms: _497  and  _500
REMARK  207  A    between atoms: _500  and  _501
REMARK  208  A    between atoms: _504  and  _506
REMARK  209  A    between atoms: _506  and  _507
REMARK  210  A    between atoms: _506  and  _509
REMARK  211  A    between atoms: _509  and  _510
REMARK  212  A    between atoms: _514  and  _515
REMARK  213  A    between atoms: _520  and  _522
REMARK  214  A    between atoms: _522  and  _523
REMARK  215  A    between atoms: _522  and  _525
REMARK  216  A    between atoms: _528  and  _530
REMARK  217  A    between atoms: _530  and  _531
REMARK  218  A    between atoms: _530  and  _533
REMARK  219  A    between atoms: _533  and  _534
REMARK  220  A    between atoms: _539  and  _541
REMARK  221  A    between atoms: _541  and  _542
REMARK  222  A    between atoms: _541  and  _544
REMARK  223  A    between atoms: _544  and  _545
REMARK  224  A    between atoms: _548  and  _550
REMARK  225  A    between atoms: _550  and  _551
REMARK  226  A    between atoms: _550  and  _553
REMARK  227  A    between atoms: _553  and  _554
REMARK  228  A    between atoms: _557  and  _559
REMARK  229  A    between atoms: _559  and  _560
REMARK  230  A    between atoms: _562  and  _564
REMARK  231  A    between atoms: _564  and  _565
REMARK  232  A    between atoms: _564  and  _567
REMARK  233  A    between atoms: _567  and  _568
REMARK  234  A    between atoms: _568  and  _569
REMARK  235  A    between atoms: _569  and  _570
REMARK  236  A    between atoms: _579  and  _581
REMARK  237  A    between atoms: _581  and  _582
REMARK  238  A    between atoms: _581  and  _584
REMARK  239  A    between atoms: _584  and  _585
REMARK                            x       y       z     vdW  Elec       q    Type
REMARK                         _______ _______ _______ _____ _____    ______ ____
ROOT
ATOM      1  O   HOH     1      20.938  35.735  17.545  0.00  0.00    +0.000 OA
ENDROOT
TORSDOF 0
REMARK  Name = ../refined-set-2016/3nu5/3nu5_pocket.pdb
REMARK  239 active torsions:
REMARK  status: ('A' for Active; 'I' for Inactive)
REMARK    1  A    between atoms: _1  and  _3
REMARK    2  A    between atoms: _3  and  _4
REMARK    3  A    between atoms: _3  and  _6
REMARK    4  A    between atoms: _6  and  _7
REMARK    5  A    between atoms: _7  and  _8
REMARK    6  A    between atoms: _8  and  _9
REMARK    7  A    between atoms: _18  and  _20
REMARK    8  A    between atoms: _20  and  _21
REMARK    9  A    between atoms: _20  and  _23
REMARK   10  A    between atoms: _23  and  _24
REMARK   11  A    between atoms: _27  and  _29
REMARK   12  A    between atoms: _29  and  _30
REMARK   13  A    between atoms: _29  and  _32
REMARK   14  A    between atoms: _32  and  _33
REMARK   15  A    between atoms: _36  and  _38
REMARK   16  A    between atoms: _38  and  _39
REMARK   17  A    between atoms: _38  and  _41
REMARK   18  A    between atoms: _41  and  _42
REMARK   19  A    between atoms: _45  and  _47
REMARK   20  A    between atoms: _47  and  _48
REMARK   21  A    between atoms: _47  and  _50
REMARK   22  A    between atoms: _50  and  _51
REMARK   23  A    between atoms: _54  and  _56
REMARK   24  A    between atoms: _56  and  _57
REMARK   25  A    between atoms: _59  and  _61
REMARK   26  A    between atoms: _61  and  _62
REMARK   27  A    between atoms: _65  and  _67
REMARK   28  A    between atoms: _67  and  _68
REMARK   29  A    between atoms: _67  and  _70
REMARK   30  A    between atoms: _70  and  _71
REMARK   31  A    between atoms: _74  and  _76
REMARK   32  A    between atoms: _76  and  _77
REMARK   33  A    between atoms: _76  and  _79
REMARK   34  A    between atoms: _79  and  _80
REMARK   35  A    between atoms: _83  and  _85
REMARK   36  A    between atoms: _85  and  _86
REMARK   37  A    between atoms: _85  and  _88
REMARK   38  A    between atoms: _88  and  _89
REMARK   39  A    between atoms: _92  and  _94
REMARK   40  A    between atoms: _94  and  _95
REMARK   41  A    between atoms: _94  and  _97
REMARK   42  A    between atoms: _100  and  _102
REMARK   43  A    between atoms: _102  and  _103
REMARK   44  A    between atoms: _102  and  _105
REMARK   45  A    between atoms: _105  and  _106
REMARK   46  A    between atoms: _109  and  _111
REMARK   47  A    between atoms: _111  and  _112
REMARK   48  A    between atoms: _111  and  _114
REMARK   49  A    between atoms: _114  and  _115
REMARK   50  A    between atoms: _115  and  _116
REMARK   51  A    between atoms: _116  and  _117
REMARK   52  A    between atoms: _117  and  _118
REMARK   53  A    between atoms: _122  and  _124
REMARK   54  A    between atoms: _124  and  _125
REMARK   55  A    between atoms: _124  and  _127
REMARK   56  A    between atoms: _127  and  _128
REMARK   57  A    between atoms: _128  and  _129
REMARK   58  A    between atoms: _131  and  _133
REMARK   59  A    between atoms: _133  and  _134
REMARK   60  A    between atoms: _133  and  _136
REMARK   61  A    between atoms: _136  and  _137
REMARK   62  A    between atoms: _140  and  _142
REMARK   63  A    between atoms: _142  and  _143
REMARK   64  A    between atoms: _145  and  _147
REMARK   65  A    between atoms: _147  and  _148
REMARK   66  A    between atoms: _150  and  _152
REMARK   67  A    between atoms: _152  and  _153
REMARK   68  A    between atoms: _152  and  _155
REMARK   69  A    between atoms: _158  and  _160
REMARK   70  A    between atoms: _160  and  _161
REMARK   71  A    between atoms: _163  and  _165
REMARK   72  A    between atoms: _165  and  _166
REMARK   73  A    between atoms: _168  and  _170
REMARK   74  A    between atoms: _170  and  _171
REMARK   75  A    between atoms: _170  and  _173
REMARK   76  A    between atoms: _173  and  _174
REMARK   77  A    between atoms: _180  and  _182
REMARK   78  A    between atoms: _182  and  _183
REMARK   79  A    between atoms: _182  and  _185
REMARK   80  A    between atoms: _185  and  _186
REMARK   81  A    between atoms: _189  and  _191
REMARK   82  A    between atoms: _191  and  _192
REMARK   83  A    between atoms: _191  and  _194
REMARK   84  A    between atoms: _197  and  _199
REMARK   85  A    between atoms: _199  and  _200
REMARK   86  A    between atoms: _199  and  _202
REMARK   87  A    between atoms: _202  and  _203
REMARK   88  A    between atoms: _207  and  _208
REMARK   89  A    between atoms: _213  and  _215
REMARK   90  A    between atoms: _215  and  _216
REMARK   91  A    between atoms: _215  and  _218
REMARK   92  A    between atoms: _218  and  _219
REMARK   93  A    between atoms: _223  and  _224
REMARK   94  A    between atoms: _229  and  _231
REMARK   95  A    between atoms: _231  and  _232
REMARK   96  A    between atoms: _231  and  _234
REMARK   97  A    between atoms: _237  and  _239
REMARK   98  A    between atoms: _239  and  _240
REMARK   99  A    between atoms: _239  and  _242
REMARK  100  A    between atoms: _242  and  _243
REMARK  101  A    between atoms: _248  and  _250
REMARK  102  A    between atoms: _250  and  _251
REMARK  103  A    between atoms: _250  and  _253
REMARK  104  A    between atoms: _253  and  _254
REMARK  105  A    between atoms: _257  and  _259
REMARK  106  A    between atoms: _259  and  _260
REMARK  107  A    between atoms: _259  and  _262
REMARK  108  A    between atoms: _262  and  _263
REMARK  109  A    between atoms: _266  and  _268
REMARK  110  A    between atoms: _268  and  _269
REMARK  111  A    between atoms: _271  and  _273
REMARK  112  A    between atoms: _273  and  _274
REMARK  113  A    between atoms: _273  and  _276
REMARK  114  A    between atoms: _276  and  _277
REMARK  115  A    between atoms: _277  and  _278
REMARK  116  A    between atoms: _278  and  _279
REMARK  117  A    between atoms: _288  and  _290
REMARK  118  A    between atoms: _290  and  _291
REMARK  119  A    between atoms: _290  and  _293
REMARK  120  A    between atoms: _293  and  _294
REMARK  121  A    between atoms: _299  and  _301
REMARK  122  A    between atoms: _301  and  _302
REMARK  123  A    between atoms: _301  and  _304
REMARK  124  A    between atoms: _304  and  _305
REMARK  125  A    between atoms: _305  and  _306
REMARK  126  A    between atoms: _306  and  _307
REMARK  127  A    between atoms: _316  and  _318
REMARK  128  A    between atoms: _318  and  _319
REMARK  129  A    between atoms: _318  and  _321
REMARK  130  A    between atoms: _321  and  _322
REMARK  131  A    between atoms: _325  and  _327
REMARK  132  A    between atoms: _327  and  _328
REMARK  133  A    between atoms: _327  and  _330
REMARK  134  A    between atoms: _330  and  _331
REMARK  135  A    between atoms: _334  and  _336
REMARK  136  A    between atoms: _336  and  _337
REMARK  137  A    between atoms: _336  and  _339
REMARK  138  A    between atoms: _339  and  _340
REMARK  139  A    between atoms: _343  and  _345
REMARK  140  A    between atoms: _345  and  _346
REMARK  141  A    between atoms: _345  and  _348
REMARK  142  A    between atoms: _348  and  _349
REMARK  143  A    between atoms: _352  and  _354
REMARK  144  A    between atoms: _354  and  _355
REMARK  145  A    between atoms: _357  and  _359
REMARK  146  A    between atoms: _359  and  _360
REMARK  147  A    between atoms: _363  and  _365
REMARK  148  A    between atoms: _365  and  _366
REMARK  149  A    between atoms: _365  and  _368
REMARK  150  A    between atoms: _368  and  _369
REMARK  151  A    between atoms: _372  and  _374
REMARK  152  A    between atoms: _374  and  _375
REMARK  153  A    between atoms: _374  and  _377
REMARK  154  A    between atoms: _377  and  _378
REMARK  155  A    between atoms: _381  and  _383
REMARK  156  A    between atoms: _383  and  _384
REMARK  157  A    between atoms: _383  and  _386
REMARK  158  A    between atoms: _386  and  _387
REMARK  159  A    between atoms: _390  and  _392
REMARK  160  A    between atoms: _392  and  _393
REMARK  161  A    between atoms: _392  and  _395
REMARK  162  A    between atoms: _398  and  _400
REMARK  163  A    between atoms: _400  and  _401
REMARK  164  A    between atoms: _400  and  _403
REMARK  165  A    between atoms: _403  and  _404
REMARK  166  A    between atoms: _407  and  _409
REMARK  167  A    between atoms: _409  and  _410
REMARK  168  A    between atoms: _409  and  _412
REMARK  169  A    between atoms: _412  and  _413
REMARK  170  A    between atoms: _413  and  _414
REMARK  171  A    between atoms: _414  and  _415
REMARK  172  A    between atoms: _415  and  _416
REMARK  173  A    between atoms: _420  and  _422
REMARK  174  A    between atoms: _422  and  _423
REMARK  175  A    between atoms: _422  and  _425
REMARK  176  A    between atoms: _425  and  _426
REMARK  177  A    between atoms: _426  and  _427
REMARK  178  A    between atoms: _429  and  _431
REMARK  179  A    between atoms: _431  and  _432
REMARK  180  A    between atoms: _431  and  _434
REMARK  181  A    between atoms: _434  and  _435
REMARK  182  A    between atoms: _438  and  _440
REMARK  183  A    between atoms: _440  and  _441
REMARK  184  A    between atoms: _443  and  _445
REMARK  185  A    between atoms: _445  and  _446
REMARK  186  A    between atoms: _448  and  _450
REMARK  187  A    between atoms: _450  and  _451
REMARK  188  A    between atoms: _450  and  _453
REMARK  189  A    between atoms: _456  and  _458
REMARK  190  A    between atoms: _458  and  _459
REMARK  191  A    between atoms: _461  and  _463
REMARK  192  A    between atoms: _463  and  _464
REMARK  193  A    between atoms: _466  and  _468
REMARK  194  A    between atoms: _468  and  _469
REMARK  195  A    between atoms: _468  and  _471
REMARK  196  A    between atoms: _471  and  _472
REMARK  197  A    between atoms: _478  and  _480
REMARK  198  A    between atoms: _480  and  _481
REMARK  199  A    between atoms: _480  and  _483
REMARK  200  A    between atoms: _483  and  _484
REMARK  201  A    between atoms: _487  and  _489
REMARK  202  A    between atoms: _489  and  _490
REMARK  203  A    between atoms: _489  and  _492
REMARK  204  A    between atoms: _495  and  _497
REMARK  205  A    between atoms: _497  and  _498
REMARK  206  A    between atoms: _497  and  _500
REMARK  207  A    between atoms: _500  and  _501
REMARK  208  A    between atoms: _504  and  _506
REMARK  209  A    between atoms: _506  and  _507
REMARK  210  A    between atoms: _506  and  _509
REMARK  211  A    between atoms: _509  and  _510
REMARK  212  A    between atoms: _514  and  _515
REMARK  213  A    between atoms: _520  and  _522
REMARK  214  A    between atoms: _522  and  _523
REMARK  215  A    between atoms: _522  and  _525
REMARK  216  A    between atoms: _528  and  _530
REMARK  217  A    between atoms: _530  and  _531
REMARK  218  A    between atoms: _530  and  _533
REMARK  219  A    between atoms: _533  and  _534
REMARK  220  A    between atoms: _539  and  _541
REMARK  221  A    between atoms: _541  and  _542
REMARK  222  A    between atoms: _541  and  _544
REMARK  223  A    between atoms: _544  and  _545
REMARK  224  A    between atoms: _548  and  _550
REMARK  225  A    between atoms: _550  and  _551
REMARK  226  A    between atoms: _550  and  _553
REMARK  227  A    between atoms: _553  and  _554
REMARK  228  A    between atoms: _557  and  _559
REMARK  229  A    between atoms: _559  and  _560
REMARK  230  A    between atoms: _562  and  _564
REMARK  231  A    between atoms: _564  and  _565
REMARK  232  A    between atoms: _564  and  _567
REMARK  233  A    between atoms: _567  and  _568
REMARK  234  A    between atoms: _568  and  _569
REMARK  235  A    between atoms: _569  and  _570
REMARK  236  A    between atoms: _579  and  _581
REMARK  237  A    between atoms: _581  and  _582
REMARK  238  A    between atoms: _581  and  _584
REMARK  239  A    between atoms: _584  and  _585
REMARK                            x       y       z     vdW  Elec       q    Type
REMARK                         _______ _______ _______ _____ _____    ______ ____
ROOT
ATOM      1  O   HOH     1      25.108  26.174  15.965  0.00  0.00    +0.000 OA
ENDROOT
TORSDOF 0
REMARK  Name = ../refined-set-2016/3nu5/3nu5_pocket.pdb
REMARK  239 active torsions:
REMARK  status: ('A' for Active; 'I' for Inactive)
REMARK    1  A    between atoms: _1  and  _3
REMARK    2  A    between atoms: _3  and  _4
REMARK    3  A    between atoms: _3  and  _6
REMARK    4  A    between atoms: _6  and  _7
REMARK    5  A    between atoms: _7  and  _8
REMARK    6  A    between atoms: _8  and  _9
REMARK    7  A    between atoms: _18  and  _20
REMARK    8  A    between atoms: _20  and  _21
REMARK    9  A    between atoms: _20  and  _23
REMARK   10  A    between atoms: _23  and  _24
REMARK   11  A    between atoms: _27  and  _29
REMARK   12  A    between atoms: _29  and  _30
REMARK   13  A    between atoms: _29  and  _32
REMARK   14  A    between atoms: _32  and  _33
REMARK   15  A    between atoms: _36  and  _38
REMARK   16  A    between atoms: _38  and  _39
REMARK   17  A    between atoms: _38  and  _41
REMARK   18  A    between atoms: _41  and  _42
REMARK   19  A    between atoms: _45  and  _47
REMARK   20  A    between atoms: _47  and  _48
REMARK   21  A    between atoms: _47  and  _50
REMARK   22  A    between atoms: _50  and  _51
REMARK   23  A    between atoms: _54  and  _56
REMARK   24  A    between atoms: _56  and  _57
REMARK   25  A    between atoms: _59  and  _61
REMARK   26  A    between atoms: _61  and  _62
REMARK   27  A    between atoms: _65  and  _67
REMARK   28  A    between atoms: _67  and  _68
REMARK   29  A    between atoms: _67  and  _70
REMARK   30  A    between atoms: _70  and  _71
REMARK   31  A    between atoms: _74  and  _76
REMARK   32  A    between atoms: _76  and  _77
REMARK   33  A    between atoms: _76  and  _79
REMARK   34  A    between atoms: _79  and  _80
REMARK   35  A    between atoms: _83  and  _85
REMARK   36  A    between atoms: _85  and  _86
REMARK   37  A    between atoms: _85  and  _88
REMARK   38  A    between atoms: _88  and  _89
REMARK   39  A    between atoms: _92  and  _94
REMARK   40  A    between atoms: _94  and  _95
REMARK   41  A    between atoms: _94  and  _97
REMARK   42  A    between atoms: _100  and  _102
REMARK   43  A    between atoms: _102  and  _103
REMARK   44  A    between atoms: _102  and  _105
REMARK   45  A    between atoms: _105  and  _106
REMARK   46  A    between atoms: _109  and  _111
REMARK   47  A    between atoms: _111  and  _112
REMARK   48  A    between atoms: _111  and  _114
REMARK   49  A    between atoms: _114  and  _115
REMARK   50  A    between atoms: _115  and  _116
REMARK   51  A    between atoms: _116  and  _117
REMARK   52  A    between atoms: _117  and  _118
REMARK   53  A    between atoms: _122  and  _124
REMARK   54  A    between atoms: _124  and  _125
REMARK   55  A    between atoms: _124  and  _127
REMARK   56  A    between atoms: _127  and  _128
REMARK   57  A    between atoms: _128  and  _129
REMARK   58  A    between atoms: _131  and  _133
REMARK   59  A    between atoms: _133  and  _134
REMARK   60  A    between atoms: _133  and  _136
REMARK   61  A    between atoms: _136  and  _137
REMARK   62  A    between atoms: _140  and  _142
REMARK   63  A    between atoms: _142  and  _143
REMARK   64  A    between atoms: _145  and  _147
REMARK   65  A    between atoms: _147  and  _148
REMARK   66  A    between atoms: _150  and  _152
REMARK   67  A    between atoms: _152  and  _153
REMARK   68  A    between atoms: _152  and  _155
REMARK   69  A    between atoms: _158  and  _160
REMARK   70  A    between atoms: _160  and  _161
REMARK   71  A    between atoms: _163  and  _165
REMARK   72  A    between atoms: _165  and  _166
REMARK   73  A    between atoms: _168  and  _170
REMARK   74  A    between atoms: _170  and  _171
REMARK   75  A    between atoms: _170  and  _173
REMARK   76  A    between atoms: _173  and  _174
REMARK   77  A    between atoms: _180  and  _182
REMARK   78  A    between atoms: _182  and  _183
REMARK   79  A    between atoms: _182  and  _185
REMARK   80  A    between atoms: _185  and  _186
REMARK   81  A    between atoms: _189  and  _191
REMARK   82  A    between atoms: _191  and  _192
REMARK   83  A    between atoms: _191  and  _194
REMARK   84  A    between atoms: _197  and  _199
REMARK   85  A    between atoms: _199  and  _200
REMARK   86  A    between atoms: _199  and  _202
REMARK   87  A    between atoms: _202  and  _203
REMARK   88  A    between atoms: _207  and  _208
REMARK   89  A    between atoms: _213  and  _215
REMARK   90  A    between atoms: _215  and  _216
REMARK   91  A    between atoms: _215  and  _218
REMARK   92  A    between atoms: _218  and  _219
REMARK   93  A    between atoms: _223  and  _224
REMARK   94  A    between atoms: _229  and  _231
REMARK   95  A    between atoms: _231  and  _232
REMARK   96  A    between atoms: _231  and  _234
REMARK   97  A    between atoms: _237  and  _239
REMARK   98  A    between atoms: _239  and  _240
REMARK   99  A    between atoms: _239  and  _242
REMARK  100  A    between atoms: _242  and  _243
REMARK  101  A    between atoms: _248  and  _250
REMARK  102  A    between atoms: _250  and  _251
REMARK  103  A    between atoms: _250  and  _253
REMARK  104  A    between atoms: _253  and  _254
REMARK  105  A    between atoms: _257  and  _259
REMARK  106  A    between atoms: _259  and  _260
REMARK  107  A    between atoms: _259  and  _262
REMARK  108  A    between atoms: _262  and  _263
REMARK  109  A    between atoms: _266  and  _268
REMARK  110  A    between atoms: _268  and  _269
REMARK  111  A    between atoms: _271  and  _273
REMARK  112  A    between atoms: _273  and  _274
REMARK  113  A    between atoms: _273  and  _276
REMARK  114  A    between atoms: _276  and  _277
REMARK  115  A    between atoms: _277  and  _278
REMARK  116  A    between atoms: _278  and  _279
REMARK  117  A    between atoms: _288  and  _290
REMARK  118  A    between atoms: _290  and  _291
REMARK  119  A    between atoms: _290  and  _293
REMARK  120  A    between atoms: _293  and  _294
REMARK  121  A    between atoms: _299  and  _301
REMARK  122  A    between atoms: _301  and  _302
REMARK  123  A    between atoms: _301  and  _304
REMARK  124  A    between atoms: _304  and  _305
REMARK  125  A    between atoms: _305  and  _306
REMARK  126  A    between atoms: _306  and  _307
REMARK  127  A    between atoms: _316  and  _318
REMARK  128  A    between atoms: _318  and  _319
REMARK  129  A    between atoms: _318  and  _321
REMARK  130  A    between atoms: _321  and  _322
REMARK  131  A    between atoms: _325  and  _327
REMARK  132  A    between atoms: _327  and  _328
REMARK  133  A    between atoms: _327  and  _330
REMARK  134  A    between atoms: _330  and  _331
REMARK  135  A    between atoms: _334  and  _336
REMARK  136  A    between atoms: _336  and  _337
REMARK  137  A    between atoms: _336  and  _339
REMARK  138  A    between atoms: _339  and  _340
REMARK  139  A    between atoms: _343  and  _345
REMARK  140  A    between atoms: _345  and  _346
REMARK  141  A    between atoms: _345  and  _348
REMARK  142  A    between atoms: _348  and  _349
REMARK  143  A    between atoms: _352  and  _354
REMARK  144  A    between atoms: _354  and  _355
REMARK  145  A    between atoms: _357  and  _359
REMARK  146  A    between atoms: _359  and  _360
REMARK  147  A    between atoms: _363  and  _365
REMARK  148  A    between atoms: _365  and  _366
REMARK  149  A    between atoms: _365  and  _368
REMARK  150  A    between atoms: _368  and  _369
REMARK  151  A    between atoms: _372  and  _374
REMARK  152  A    between atoms: _374  and  _375
REMARK  153  A    between atoms: _374  and  _377
REMARK  154  A    between atoms: _377  and  _378
REMARK  155  A    between atoms: _381  and  _383
REMARK  156  A    between atoms: _383  and  _384
REMARK  157  A    between atoms: _383  and  _386
REMARK  158  A    between atoms: _386  and  _387
REMARK  159  A    between atoms: _390  and  _392
REMARK  160  A    between atoms: _392  and  _393
REMARK  161  A    between atoms: _392  and  _395
REMARK  162  A    between atoms: _398  and  _400
REMARK  163  A    between atoms: _400  and  _401
REMARK  164  A    between atoms: _400  and  _403
REMARK  165  A    between atoms: _403  and  _404
REMARK  166  A    between atoms: _407  and  _409
REMARK  167  A    between atoms: _409  and  _410
REMARK  168  A    between atoms: _409  and  _412
REMARK  169  A    between atoms: _412  and  _413
REMARK  170  A    between atoms: _413  and  _414
REMARK  171  A    between atoms: _414  and  _415
REMARK  172  A    between atoms: _415  and  _416
REMARK  173  A    between atoms: _420  and  _422
REMARK  174  A    between atoms: _422  and  _423
REMARK  175  A    between atoms: _422  and  _425
REMARK  176  A    between atoms: _425  and  _426
REMARK  177  A    between atoms: _426  and  _427
REMARK  178  A    between atoms: _429  and  _431
REMARK  179  A    between atoms: _431  and  _432
REMARK  180  A    between atoms: _431  and  _434
REMARK  181  A    between atoms: _434  and  _435
REMARK  182  A    between atoms: _438  and  _440
REMARK  183  A    between atoms: _440  and  _441
REMARK  184  A    between atoms: _443  and  _445
REMARK  185  A    between atoms: _445  and  _446
REMARK  186  A    between atoms: _448  and  _450
REMARK  187  A    between atoms: _450  and  _451
REMARK  188  A    between atoms: _450  and  _453
REMARK  189  A    between atoms: _456  and  _458
REMARK  190  A    between atoms: _458  and  _459
REMARK  191  A    between atoms: _461  and  _463
REMARK  192  A    between atoms: _463  and  _464
REMARK  193  A    between atoms: _466  and  _468
REMARK  194  A    between atoms: _468  and  _469
REMARK  195  A    between atoms: _468  and  _471
REMARK  196  A    between atoms: _471  and  _472
REMARK  197  A    between atoms: _478  and  _480
REMARK  198  A    between atoms: _480  and  _481
REMARK  199  A    between atoms: _480  and  _483
REMARK  200  A    between atoms: _483  and  _484
REMARK  201  A    between atoms: _487  and  _489
REMARK  202  A    between atoms: _489  and  _490
REMARK  203  A    between atoms: _489  and  _492
REMARK  204  A    between atoms: _495  and  _497
REMARK  205  A    between atoms: _497  and  _498
REMARK  206  A    between atoms: _497  and  _500
REMARK  207  A    between atoms: _500  and  _501
REMARK  208  A    between atoms: _504  and  _506
REMARK  209  A    between atoms: _506  and  _507
REMARK  210  A    between atoms: _506  and  _509
REMARK  211  A    between atoms: _509  and  _510
REMARK  212  A    between atoms: _514  and  _515
REMARK  213  A    between atoms: _520  and  _522
REMARK  214  A    between atoms: _522  and  _523
REMARK  215  A    between atoms: _522  and  _525
REMARK  216  A    between atoms: _528  and  _530
REMARK  217  A    between atoms: _530  and  _531
REMARK  218  A    between atoms: _530  and  _533
REMARK  219  A    between atoms: _533  and  _534
REMARK  220  A    between atoms: _539  and  _541
REMARK  221  A    between atoms: _541  and  _542
REMARK  222  A    between atoms: _541  and  _544
REMARK  223  A    between atoms: _544  and  _545
REMARK  224  A    between atoms: _548  and  _550
REMARK  225  A    between atoms: _550  and  _551
REMARK  226  A    between atoms: _550  and  _553
REMARK  227  A    between atoms: _553  and  _554
REMARK  228  A    between atoms: _557  and  _559
REMARK  229  A    between atoms: _559  and  _560
REMARK  230  A    between atoms: _562  and  _564
REMARK  231  A    between atoms: _564  and  _565
REMARK  232  A    between atoms: _564  and  _567
REMARK  233  A    between atoms: _567  and  _568
REMARK  234  A    between atoms: _568  and  _569
REMARK  235  A    between atoms: _569  and  _570
REMARK  236  A    between atoms: _579  and  _581
REMARK  237  A    between atoms: _581  and  _582
REMARK  238  A    between atoms: _581  and  _584
REMARK  239  A    between atoms: _584  and  _585
REMARK                            x       y       z     vdW  Elec       q    Type
REMARK                         _______ _______ _______ _____ _____    ______ ____
ROOT
ATOM      1  O   HOH     1      20.771  27.958  18.440  0.00  0.00    +0.000 OA
ENDROOT
TORSDOF 0
REMARK  Name = ../refined-set-2016/3nu5/3nu5_pocket.pdb
REMARK  239 active torsions:
REMARK  status: ('A' for Active; 'I' for Inactive)
REMARK    1  A    between atoms: _1  and  _3
REMARK    2  A    between atoms: _3  and  _4
REMARK    3  A    between atoms: _3  and  _6
REMARK    4  A    between atoms: _6  and  _7
REMARK    5  A    between atoms: _7  and  _8
REMARK    6  A    between atoms: _8  and  _9
REMARK    7  A    between atoms: _18  and  _20
REMARK    8  A    between atoms: _20  and  _21
REMARK    9  A    between atoms: _20  and  _23
REMARK   10  A    between atoms: _23  and  _24
REMARK   11  A    between atoms: _27  and  _29
REMARK   12  A    between atoms: _29  and  _30
REMARK   13  A    between atoms: _29  and  _32
REMARK   14  A    between atoms: _32  and  _33
REMARK   15  A    between atoms: _36  and  _38
REMARK   16  A    between atoms: _38  and  _39
REMARK   17  A    between atoms: _38  and  _41
REMARK   18  A    between atoms: _41  and  _42
REMARK   19  A    between atoms: _45  and  _47
REMARK   20  A    between atoms: _47  and  _48
REMARK   21  A    between atoms: _47  and  _50
REMARK   22  A    between atoms: _50  and  _51
REMARK   23  A    between atoms: _54  and  _56
REMARK   24  A    between atoms: _56  and  _57
REMARK   25  A    between atoms: _59  and  _61
REMARK   26  A    between atoms: _61  and  _62
REMARK   27  A    between atoms: _65  and  _67
REMARK   28  A    between atoms: _67  and  _68
REMARK   29  A    between atoms: _67  and  _70
REMARK   30  A    between atoms: _70  and  _71
REMARK   31  A    between atoms: _74  and  _76
REMARK   32  A    between atoms: _76  and  _77
REMARK   33  A    between atoms: _76  and  _79
REMARK   34  A    between atoms: _79  and  _80
REMARK   35  A    between atoms: _83  and  _85
REMARK   36  A    between atoms: _85  and  _86
REMARK   37  A    between atoms: _85  and  _88
REMARK   38  A    between atoms: _88  and  _89
REMARK   39  A    between atoms: _92  and  _94
REMARK   40  A    between atoms: _94  and  _95
REMARK   41  A    between atoms: _94  and  _97
REMARK   42  A    between atoms: _100  and  _102
REMARK   43  A    between atoms: _102  and  _103
REMARK   44  A    between atoms: _102  and  _105
REMARK   45  A    between atoms: _105  and  _106
REMARK   46  A    between atoms: _109  and  _111
REMARK   47  A    between atoms: _111  and  _112
REMARK   48  A    between atoms: _111  and  _114
REMARK   49  A    between atoms: _114  and  _115
REMARK   50  A    between atoms: _115  and  _116
REMARK   51  A    between atoms: _116  and  _117
REMARK   52  A    between atoms: _117  and  _118
REMARK   53  A    between atoms: _122  and  _124
REMARK   54  A    between atoms: _124  and  _125
REMARK   55  A    between atoms: _124  and  _127
REMARK   56  A    between atoms: _127  and  _128
REMARK   57  A    between atoms: _128  and  _129
REMARK   58  A    between atoms: _131  and  _133
REMARK   59  A    between atoms: _133  and  _134
REMARK   60  A    between atoms: _133  and  _136
REMARK   61  A    between atoms: _136  and  _137
REMARK   62  A    between atoms: _140  and  _142
REMARK   63  A    between atoms: _142  and  _143
REMARK   64  A    between atoms: _145  and  _147
REMARK   65  A    between atoms: _147  and  _148
REMARK   66  A    between atoms: _150  and  _152
REMARK   67  A    between atoms: _152  and  _153
REMARK   68  A    between atoms: _152  and  _155
REMARK   69  A    between atoms: _158  and  _160
REMARK   70  A    between atoms: _160  and  _161
REMARK   71  A    between atoms: _163  and  _165
REMARK   72  A    between atoms: _165  and  _166
REMARK   73  A    between atoms: _168  and  _170
REMARK   74  A    between atoms: _170  and  _171
REMARK   75  A    between atoms: _170  and  _173
REMARK   76  A    between atoms: _173  and  _174
REMARK   77  A    between atoms: _180  and  _182
REMARK   78  A    between atoms: _182  and  _183
REMARK   79  A    between atoms: _182  and  _185
REMARK   80  A    between atoms: _185  and  _186
REMARK   81  A    between atoms: _189  and  _191
REMARK   82  A    between atoms: _191  and  _192
REMARK   83  A    between atoms: _191  and  _194
REMARK   84  A    between atoms: _197  and  _199
REMARK   85  A    between atoms: _199  and  _200
REMARK   86  A    between atoms: _199  and  _202
REMARK   87  A    between atoms: _202  and  _203
REMARK   88  A    between atoms: _207  and  _208
REMARK   89  A    between atoms: _213  and  _215
REMARK   90  A    between atoms: _215  and  _216
REMARK   91  A    between atoms: _215  and  _218
REMARK   92  A    between atoms: _218  and  _219
REMARK   93  A    between atoms: _223  and  _224
REMARK   94  A    between atoms: _229  and  _231
REMARK   95  A    between atoms: _231  and  _232
REMARK   96  A    between atoms: _231  and  _234
REMARK   97  A    between atoms: _237  and  _239
REMARK   98  A    between atoms: _239  and  _240
REMARK   99  A    between atoms: _239  and  _242
REMARK  100  A    between atoms: _242  and  _243
REMARK  101  A    between atoms: _248  and  _250
REMARK  102  A    between atoms: _250  and  _251
REMARK  103  A    between atoms: _250  and  _253
REMARK  104  A    between atoms: _253  and  _254
REMARK  105  A    between atoms: _257  and  _259
REMARK  106  A    between atoms: _259  and  _260
REMARK  107  A    between atoms: _259  and  _262
REMARK  108  A    between atoms: _262  and  _263
REMARK  109  A    between atoms: _266  and  _268
REMARK  110  A    between atoms: _268  and  _269
REMARK  111  A    between atoms: _271  and  _273
REMARK  112  A    between atoms: _273  and  _274
REMARK  113  A    between atoms: _273  and  _276
REMARK  114  A    between atoms: _276  and  _277
REMARK  115  A    between atoms: _277  and  _278
REMARK  116  A    between atoms: _278  and  _279
REMARK  117  A    between atoms: _288  and  _290
REMARK  118  A    between atoms: _290  and  _291
REMARK  119  A    between atoms: _290  and  _293
REMARK  120  A    between atoms: _293  and  _294
REMARK  121  A    between atoms: _299  and  _301
REMARK  122  A    between atoms: _301  and  _302
REMARK  123  A    between atoms: _301  and  _304
REMARK  124  A    between atoms: _304  and  _305
REMARK  125  A    between atoms: _305  and  _306
REMARK  126  A    between atoms: _306  and  _307
REMARK  127  A    between atoms: _316  and  _318
REMARK  128  A    between atoms: _318  and  _319
REMARK  129  A    between atoms: _318  and  _321
REMARK  130  A    between atoms: _321  and  _322
REMARK  131  A    between atoms: _325  and  _327
REMARK  132  A    between atoms: _327  and  _328
REMARK  133  A    between atoms: _327  and  _330
REMARK  134  A    between atoms: _330  and  _331
REMARK  135  A    between atoms: _334  and  _336
REMARK  136  A    between atoms: _336  and  _337
REMARK  137  A    between atoms: _336  and  _339
REMARK  138  A    between atoms: _339  and  _340
REMARK  139  A    between atoms: _343  and  _345
REMARK  140  A    between atoms: _345  and  _346
REMARK  141  A    between atoms: _345  and  _348
REMARK  142  A    between atoms: _348  and  _349
REMARK  143  A    between atoms: _352  and  _354
REMARK  144  A    between atoms: _354  and  _355
REMARK  145  A    between atoms: _357  and  _359
REMARK  146  A    between atoms: _359  and  _360
REMARK  147  A    between atoms: _363  and  _365
REMARK  148  A    between atoms: _365  and  _366
REMARK  149  A    between atoms: _365  and  _368
REMARK  150  A    between atoms: _368  and  _369
REMARK  151  A    between atoms: _372  and  _374
REMARK  152  A    between atoms: _374  and  _375
REMARK  153  A    between atoms: _374  and  _377
REMARK  154  A    between atoms: _377  and  _378
REMARK  155  A    between atoms: _381  and  _383
REMARK  156  A    between atoms: _383  and  _384
REMARK  157  A    between atoms: _383  and  _386
REMARK  158  A    between atoms: _386  and  _387
REMARK  159  A    between atoms: _390  and  _392
REMARK  160  A    between atoms: _392  and  _393
REMARK  161  A    between atoms: _392  and  _395
REMARK  162  A    between atoms: _398  and  _400
REMARK  163  A    between atoms: _400  and  _401
REMARK  164  A    between atoms: _400  and  _403
REMARK  165  A    between atoms: _403  and  _404
REMARK  166  A    between atoms: _407  and  _409
REMARK  167  A    between atoms: _409  and  _410
REMARK  168  A    between atoms: _409  and  _412
REMARK  169  A    between atoms: _412  and  _413
REMARK  170  A    between atoms: _413  and  _414
REMARK  171  A    between atoms: _414  and  _415
REMARK  172  A    between atoms: _415  and  _416
REMARK  173  A    between atoms: _420  and  _422
REMARK  174  A    between atoms: _422  and  _423
REMARK  175  A    between atoms: _422  and  _425
REMARK  176  A    between atoms: _425  and  _426
REMARK  177  A    between atoms: _426  and  _427
REMARK  178  A    between atoms: _429  and  _431
REMARK  179  A    between atoms: _431  and  _432
REMARK  180  A    between atoms: _431  and  _434
REMARK  181  A    between atoms: _434  and  _435
REMARK  182  A    between atoms: _438  and  _440
REMARK  183  A    between atoms: _440  and  _441
REMARK  184  A    between atoms: _443  and  _445
REMARK  185  A    between atoms: _445  and  _446
REMARK  186  A    between atoms: _448  and  _450
REMARK  187  A    between atoms: _450  and  _451
REMARK  188  A    between atoms: _450  and  _453
REMARK  189  A    between atoms: _456  and  _458
REMARK  190  A    between atoms: _458  and  _459
REMARK  191  A    between atoms: _461  and  _463
REMARK  192  A    between atoms: _463  and  _464
REMARK  193  A    between atoms: _466  and  _468
REMARK  194  A    between atoms: _468  and  _469
REMARK  195  A    between atoms: _468  and  _471
REMARK  196  A    between atoms: _471  and  _472
REMARK  197  A    between atoms: _478  and  _480
REMARK  198  A    between atoms: _480  and  _481
REMARK  199  A    between atoms: _480  and  _483
REMARK  200  A    between atoms: _483  and  _484
REMARK  201  A    between atoms: _487  and  _489
REMARK  202  A    between atoms: _489  and  _490
REMARK  203  A    between atoms: _489  and  _492
REMARK  204  A    between atoms: _495  and  _497
REMARK  205  A    between atoms: _497  and  _498
REMARK  206  A    between atoms: _497  and  _500
REMARK  207  A    between atoms: _500  and  _501
REMARK  208  A    between atoms: _504  and  _506
REMARK  209  A    between atoms: _506  and  _507
REMARK  210  A    between atoms: _506  and  _509
REMARK  211  A    between atoms: _509  and  _510
REMARK  212  A    between atoms: _514  and  _515
REMARK  213  A    between atoms: _520  and  _522
REMARK  214  A    between atoms: _522  and  _523
REMARK  215  A    between atoms: _522  and  _525
REMARK  216  A    between atoms: _528  and  _530
REMARK  217  A    between atoms: _530  and  _531
REMARK  218  A    between atoms: _530  and  _533
REMARK  219  A    between atoms: _533  and  _534
REMARK  220  A    between atoms: _539  and  _541
REMARK  221  A    between atoms: _541  and  _542
REMARK  222  A    between atoms: _541  and  _544
REMARK  223  A    between atoms: _544  and  _545
REMARK  224  A    between atoms: _548  and  _550
REMARK  225  A    between atoms: _550  and  _551
REMARK  226  A    between atoms: _550  and  _553
REMARK  227  A    between atoms: _553  and  _554
REMARK  228  A    between atoms: _557  and  _559
REMARK  229  A    between atoms: _559  and  _560
REMARK  230  A    between atoms: _562  and  _564
REMARK  231  A    between atoms: _564  and  _565
REMARK  232  A    between atoms: _564  and  _567
REMARK  233  A    between atoms: _567  and  _568
REMARK  234  A    between atoms: _568  and  _569
REMARK  235  A    between atoms: _569  and  _570
REMARK  236  A    between atoms: _579  and  _581
REMARK  237  A    between atoms: _581  and  _582
REMARK  238  A    between atoms: _581  and  _584
REMARK  239  A    between atoms: _584  and  _585
REMARK                            x       y       z     vdW  Elec       q    Type
REMARK                         _______ _______ _______ _____ _____    ______ ____
ROOT
ATOM      1  O   HOH     1       6.332  22.011  11.229  0.00  0.00    +0.000 OA
ENDROOT
TORSDOF 0
REMARK  Name = ../refined-set-2016/3nu5/3nu5_pocket.pdb
REMARK  239 active torsions:
REMARK  status: ('A' for Active; 'I' for Inactive)
REMARK    1  A    between atoms: _1  and  _3
REMARK    2  A    between atoms: _3  and  _4
REMARK    3  A    between atoms: _3  and  _6
REMARK    4  A    between atoms: _6  and  _7
REMARK    5  A    between atoms: _7  and  _8
REMARK    6  A    between atoms: _8  and  _9
REMARK    7  A    between atoms: _18  and  _20
REMARK    8  A    between atoms: _20  and  _21
REMARK    9  A    between atoms: _20  and  _23
REMARK   10  A    between atoms: _23  and  _24
REMARK   11  A    between atoms: _27  and  _29
REMARK   12  A    between atoms: _29  and  _30
REMARK   13  A    between atoms: _29  and  _32
REMARK   14  A    between atoms: _32  and  _33
REMARK   15  A    between atoms: _36  and  _38
REMARK   16  A    between atoms: _38  and  _39
REMARK   17  A    between atoms: _38  and  _41
REMARK   18  A    between atoms: _41  and  _42
REMARK   19  A    between atoms: _45  and  _47
REMARK   20  A    between atoms: _47  and  _48
REMARK   21  A    between atoms: _47  and  _50
REMARK   22  A    between atoms: _50  and  _51
REMARK   23  A    between atoms: _54  and  _56
REMARK   24  A    between atoms: _56  and  _57
REMARK   25  A    between atoms: _59  and  _61
REMARK   26  A    between atoms: _61  and  _62
REMARK   27  A    between atoms: _65  and  _67
REMARK   28  A    between atoms: _67  and  _68
REMARK   29  A    between atoms: _67  and  _70
REMARK   30  A    between atoms: _70  and  _71
REMARK   31  A    between atoms: _74  and  _76
REMARK   32  A    between atoms: _76  and  _77
REMARK   33  A    between atoms: _76  and  _79
REMARK   34  A    between atoms: _79  and  _80
REMARK   35  A    between atoms: _83  and  _85
REMARK   36  A    between atoms: _85  and  _86
REMARK   37  A    between atoms: _85  and  _88
REMARK   38  A    between atoms: _88  and  _89
REMARK   39  A    between atoms: _92  and  _94
REMARK   40  A    between atoms: _94  and  _95
REMARK   41  A    between atoms: _94  and  _97
REMARK   42  A    between atoms: _100  and  _102
REMARK   43  A    between atoms: _102  and  _103
REMARK   44  A    between atoms: _102  and  _105
REMARK   45  A    between atoms: _105  and  _106
REMARK   46  A    between atoms: _109  and  _111
REMARK   47  A    between atoms: _111  and  _112
REMARK   48  A    between atoms: _111  and  _114
REMARK   49  A    between atoms: _114  and  _115
REMARK   50  A    between atoms: _115  and  _116
REMARK   51  A    between atoms: _116  and  _117
REMARK   52  A    between atoms: _117  and  _118
REMARK   53  A    between atoms: _122  and  _124
REMARK   54  A    between atoms: _124  and  _125
REMARK   55  A    between atoms: _124  and  _127
REMARK   56  A    between atoms: _127  and  _128
REMARK   57  A    between atoms: _128  and  _129
REMARK   58  A    between atoms: _131  and  _133
REMARK   59  A    between atoms: _133  and  _134
REMARK   60  A    between atoms: _133  and  _136
REMARK   61  A    between atoms: _136  and  _137
REMARK   62  A    between atoms: _140  and  _142
REMARK   63  A    between atoms: _142  and  _143
REMARK   64  A    between atoms: _145  and  _147
REMARK   65  A    between atoms: _147  and  _148
REMARK   66  A    between atoms: _150  and  _152
REMARK   67  A    between atoms: _152  and  _153
REMARK   68  A    between atoms: _152  and  _155
REMARK   69  A    between atoms: _158  and  _160
REMARK   70  A    between atoms: _160  and  _161
REMARK   71  A    between atoms: _163  and  _165
REMARK   72  A    between atoms: _165  and  _166
REMARK   73  A    between atoms: _168  and  _170
REMARK   74  A    between atoms: _170  and  _171
REMARK   75  A    between atoms: _170  and  _173
REMARK   76  A    between atoms: _173  and  _174
REMARK   77  A    between atoms: _180  and  _182
REMARK   78  A    between atoms: _182  and  _183
REMARK   79  A    between atoms: _182  and  _185
REMARK   80  A    between atoms: _185  and  _186
REMARK   81  A    between atoms: _189  and  _191
REMARK   82  A    between atoms: _191  and  _192
REMARK   83  A    between atoms: _191  and  _194
REMARK   84  A    between atoms: _197  and  _199
REMARK   85  A    between atoms: _199  and  _200
REMARK   86  A    between atoms: _199  and  _202
REMARK   87  A    between atoms: _202  and  _203
REMARK   88  A    between atoms: _207  and  _208
REMARK   89  A    between atoms: _213  and  _215
REMARK   90  A    between atoms: _215  and  _216
REMARK   91  A    between atoms: _215  and  _218
REMARK   92  A    between atoms: _218  and  _219
REMARK   93  A    between atoms: _223  and  _224
REMARK   94  A    between atoms: _229  and  _231
REMARK   95  A    between atoms: _231  and  _232
REMARK   96  A    between atoms: _231  and  _234
REMARK   97  A    between atoms: _237  and  _239
REMARK   98  A    between atoms: _239  and  _240
REMARK   99  A    between atoms: _239  and  _242
REMARK  100  A    between atoms: _242  and  _243
REMARK  101  A    between atoms: _248  and  _250
REMARK  102  A    between atoms: _250  and  _251
REMARK  103  A    between atoms: _250  and  _253
REMARK  104  A    between atoms: _253  and  _254
REMARK  105  A    between atoms: _257  and  _259
REMARK  106  A    between atoms: _259  and  _260
REMARK  107  A    between atoms: _259  and  _262
REMARK  108  A    between atoms: _262  and  _263
REMARK  109  A    between atoms: _266  and  _268
REMARK  110  A    between atoms: _268  and  _269
REMARK  111  A    between atoms: _271  and  _273
REMARK  112  A    between atoms: _273  and  _274
REMARK  113  A    between atoms: _273  and  _276
REMARK  114  A    between atoms: _276  and  _277
REMARK  115  A    between atoms: _277  and  _278
REMARK  116  A    between atoms: _278  and  _279
REMARK  117  A    between atoms: _288  and  _290
REMARK  118  A    between atoms: _290  and  _291
REMARK  119  A    between atoms: _290  and  _293
REMARK  120  A    between atoms: _293  and  _294
REMARK  121  A    between atoms: _299  and  _301
REMARK  122  A    between atoms: _301  and  _302
REMARK  123  A    between atoms: _301  and  _304
REMARK  124  A    between atoms: _304  and  _305
REMARK  125  A    between atoms: _305  and  _306
REMARK  126  A    between atoms: _306  and  _307
REMARK  127  A    between atoms: _316  and  _318
REMARK  128  A    between atoms: _318  and  _319
REMARK  129  A    between atoms: _318  and  _321
REMARK  130  A    between atoms: _321  and  _322
REMARK  131  A    between atoms: _325  and  _327
REMARK  132  A    between atoms: _327  and  _328
REMARK  133  A    between atoms: _327  and  _330
REMARK  134  A    between atoms: _330  and  _331
REMARK  135  A    between atoms: _334  and  _336
REMARK  136  A    between atoms: _336  and  _337
REMARK  137  A    between atoms: _336  and  _339
REMARK  138  A    between atoms: _339  and  _340
REMARK  139  A    between atoms: _343  and  _345
REMARK  140  A    between atoms: _345  and  _346
REMARK  141  A    between atoms: _345  and  _348
REMARK  142  A    between atoms: _348  and  _349
REMARK  143  A    between atoms: _352  and  _354
REMARK  144  A    between atoms: _354  and  _355
REMARK  145  A    between atoms: _357  and  _359
REMARK  146  A    between atoms: _359  and  _360
REMARK  147  A    between atoms: _363  and  _365
REMARK  148  A    between atoms: _365  and  _366
REMARK  149  A    between atoms: _365  and  _368
REMARK  150  A    between atoms: _368  and  _369
REMARK  151  A    between atoms: _372  and  _374
REMARK  152  A    between atoms: _374  and  _375
REMARK  153  A    between atoms: _374  and  _377
REMARK  154  A    between atoms: _377  and  _378
REMARK  155  A    between atoms: _381  and  _383
REMARK  156  A    between atoms: _383  and  _384
REMARK  157  A    between atoms: _383  and  _386
REMARK  158  A    between atoms: _386  and  _387
REMARK  159  A    between atoms: _390  and  _392
REMARK  160  A    between atoms: _392  and  _393
REMARK  161  A    between atoms: _392  and  _395
REMARK  162  A    between atoms: _398  and  _400
REMARK  163  A    between atoms: _400  and  _401
REMARK  164  A    between atoms: _400  and  _403
REMARK  165  A    between atoms: _403  and  _404
REMARK  166  A    between atoms: _407  and  _409
REMARK  167  A    between atoms: _409  and  _410
REMARK  168  A    between atoms: _409  and  _412
REMARK  169  A    between atoms: _412  and  _413
REMARK  170  A    between atoms: _413  and  _414
REMARK  171  A    between atoms: _414  and  _415
REMARK  172  A    between atoms: _415  and  _416
REMARK  173  A    between atoms: _420  and  _422
REMARK  174  A    between atoms: _422  and  _423
REMARK  175  A    between atoms: _422  and  _425
REMARK  176  A    between atoms: _425  and  _426
REMARK  177  A    between atoms: _426  and  _427
REMARK  178  A    between atoms: _429  and  _431
REMARK  179  A    between atoms: _431  and  _432
REMARK  180  A    between atoms: _431  and  _434
REMARK  181  A    between atoms: _434  and  _435
REMARK  182  A    between atoms: _438  and  _440
REMARK  183  A    between atoms: _440  and  _441
REMARK  184  A    between atoms: _443  and  _445
REMARK  185  A    between atoms: _445  and  _446
REMARK  186  A    between atoms: _448  and  _450
REMARK  187  A    between atoms: _450  and  _451
REMARK  188  A    between atoms: _450  and  _453
REMARK  189  A    between atoms: _456  and  _458
REMARK  190  A    between atoms: _458  and  _459
REMARK  191  A    between atoms: _461  and  _463
REMARK  192  A    between atoms: _463  and  _464
REMARK  193  A    between atoms: _466  and  _468
REMARK  194  A    between atoms: _468  and  _469
REMARK  195  A    between atoms: _468  and  _471
REMARK  196  A    between atoms: _471  and  _472
REMARK  197  A    between atoms: _478  and  _480
REMARK  198  A    between atoms: _480  and  _481
REMARK  199  A    between atoms: _480  and  _483
REMARK  200  A    between atoms: _483  and  _484
REMARK  201  A    between atoms: _487  and  _489
REMARK  202  A    between atoms: _489  and  _490
REMARK  203  A    between atoms: _489  and  _492
REMARK  204  A    between atoms: _495  and  _497
REMARK  205  A    between atoms: _497  and  _498
REMARK  206  A    between atoms: _497  and  _500
REMARK  207  A    between atoms: _500  and  _501
REMARK  208  A    between atoms: _504  and  _506
REMARK  209  A    between atoms: _506  and  _507
REMARK  210  A    between atoms: _506  and  _509
REMARK  211  A    between atoms: _509  and  _510
REMARK  212  A    between atoms: _514  and  _515
REMARK  213  A    between atoms: _520  and  _522
REMARK  214  A    between atoms: _522  and  _523
REMARK  215  A    between atoms: _522  and  _525
REMARK  216  A    between atoms: _528  and  _530
REMARK  217  A    between atoms: _530  and  _531
REMARK  218  A    between atoms: _530  and  _533
REMARK  219  A    between atoms: _533  and  _534
REMARK  220  A    between atoms: _539  and  _541
REMARK  221  A    between atoms: _541  and  _542
REMARK  222  A    between atoms: _541  and  _544
REMARK  223  A    between atoms: _544  and  _545
REMARK  224  A    between atoms: _548  and  _550
REMARK  225  A    between atoms: _550  and  _551
REMARK  226  A    between atoms: _550  and  _553
REMARK  227  A    between atoms: _553  and  _554
REMARK  228  A    between atoms: _557  and  _559
REMARK  229  A    between atoms: _559  and  _560
REMARK  230  A    between atoms: _562  and  _564
REMARK  231  A    between atoms: _564  and  _565
REMARK  232  A    between atoms: _564  and  _567
REMARK  233  A    between atoms: _567  and  _568
REMARK  234  A    between atoms: _568  and  _569
REMARK  235  A    between atoms: _569  and  _570
REMARK  236  A    between atoms: _579  and  _581
REMARK  237  A    between atoms: _581  and  _582
REMARK  238  A    between atoms: _581  and  _584
REMARK  239  A    between atoms: _584  and  _585
REMARK                            x       y       z     vdW  Elec       q    Type
REMARK                         _______ _______ _______ _____ _____    ______ ____
ROOT
ATOM      1  O   HOH     1      22.779  25.948  18.097  0.00  0.00    +0.000 OA
ENDROOT
TORSDOF 0
REMARK  Name = ../refined-set-2016/3nu5/3nu5_pocket.pdb
REMARK  239 active torsions:
REMARK  status: ('A' for Active; 'I' for Inactive)
REMARK    1  A    between atoms: _1  and  _3
REMARK    2  A    between atoms: _3  and  _4
REMARK    3  A    between atoms: _3  and  _6
REMARK    4  A    between atoms: _6  and  _7
REMARK    5  A    between atoms: _7  and  _8
REMARK    6  A    between atoms: _8  and  _9
REMARK    7  A    between atoms: _18  and  _20
REMARK    8  A    between atoms: _20  and  _21
REMARK    9  A    between atoms: _20  and  _23
REMARK   10  A    between atoms: _23  and  _24
REMARK   11  A    between atoms: _27  and  _29
REMARK   12  A    between atoms: _29  and  _30
REMARK   13  A    between atoms: _29  and  _32
REMARK   14  A    between atoms: _32  and  _33
REMARK   15  A    between atoms: _36  and  _38
REMARK   16  A    between atoms: _38  and  _39
REMARK   17  A    between atoms: _38  and  _41
REMARK   18  A    between atoms: _41  and  _42
REMARK   19  A    between atoms: _45  and  _47
REMARK   20  A    between atoms: _47  and  _48
REMARK   21  A    between atoms: _47  and  _50
REMARK   22  A    between atoms: _50  and  _51
REMARK   23  A    between atoms: _54  and  _56
REMARK   24  A    between atoms: _56  and  _57
REMARK   25  A    between atoms: _59  and  _61
REMARK   26  A    between atoms: _61  and  _62
REMARK   27  A    between atoms: _65  and  _67
REMARK   28  A    between atoms: _67  and  _68
REMARK   29  A    between atoms: _67  and  _70
REMARK   30  A    between atoms: _70  and  _71
REMARK   31  A    between atoms: _74  and  _76
REMARK   32  A    between atoms: _76  and  _77
REMARK   33  A    between atoms: _76  and  _79
REMARK   34  A    between atoms: _79  and  _80
REMARK   35  A    between atoms: _83  and  _85
REMARK   36  A    between atoms: _85  and  _86
REMARK   37  A    between atoms: _85  and  _88
REMARK   38  A    between atoms: _88  and  _89
REMARK   39  A    between atoms: _92  and  _94
REMARK   40  A    between atoms: _94  and  _95
REMARK   41  A    between atoms: _94  and  _97
REMARK   42  A    between atoms: _100  and  _102
REMARK   43  A    between atoms: _102  and  _103
REMARK   44  A    between atoms: _102  and  _105
REMARK   45  A    between atoms: _105  and  _106
REMARK   46  A    between atoms: _109  and  _111
REMARK   47  A    between atoms: _111  and  _112
REMARK   48  A    between atoms: _111  and  _114
REMARK   49  A    between atoms: _114  and  _115
REMARK   50  A    between atoms: _115  and  _116
REMARK   51  A    between atoms: _116  and  _117
REMARK   52  A    between atoms: _117  and  _118
REMARK   53  A    between atoms: _122  and  _124
REMARK   54  A    between atoms: _124  and  _125
REMARK   55  A    between atoms: _124  and  _127
REMARK   56  A    between atoms: _127  and  _128
REMARK   57  A    between atoms: _128  and  _129
REMARK   58  A    between atoms: _131  and  _133
REMARK   59  A    between atoms: _133  and  _134
REMARK   60  A    between atoms: _133  and  _136
REMARK   61  A    between atoms: _136  and  _137
REMARK   62  A    between atoms: _140  and  _142
REMARK   63  A    between atoms: _142  and  _143
REMARK   64  A    between atoms: _145  and  _147
REMARK   65  A    between atoms: _147  and  _148
REMARK   66  A    between atoms: _150  and  _152
REMARK   67  A    between atoms: _152  and  _153
REMARK   68  A    between atoms: _152  and  _155
REMARK   69  A    between atoms: _158  and  _160
REMARK   70  A    between atoms: _160  and  _161
REMARK   71  A    between atoms: _163  and  _165
REMARK   72  A    between atoms: _165  and  _166
REMARK   73  A    between atoms: _168  and  _170
REMARK   74  A    between atoms: _170  and  _171
REMARK   75  A    between atoms: _170  and  _173
REMARK   76  A    between atoms: _173  and  _174
REMARK   77  A    between atoms: _180  and  _182
REMARK   78  A    between atoms: _182  and  _183
REMARK   79  A    between atoms: _182  and  _185
REMARK   80  A    between atoms: _185  and  _186
REMARK   81  A    between atoms: _189  and  _191
REMARK   82  A    between atoms: _191  and  _192
REMARK   83  A    between atoms: _191  and  _194
REMARK   84  A    between atoms: _197  and  _199
REMARK   85  A    between atoms: _199  and  _200
REMARK   86  A    between atoms: _199  and  _202
REMARK   87  A    between atoms: _202  and  _203
REMARK   88  A    between atoms: _207  and  _208
REMARK   89  A    between atoms: _213  and  _215
REMARK   90  A    between atoms: _215  and  _216
REMARK   91  A    between atoms: _215  and  _218
REMARK   92  A    between atoms: _218  and  _219
REMARK   93  A    between atoms: _223  and  _224
REMARK   94  A    between atoms: _229  and  _231
REMARK   95  A    between atoms: _231  and  _232
REMARK   96  A    between atoms: _231  and  _234
REMARK   97  A    between atoms: _237  and  _239
REMARK   98  A    between atoms: _239  and  _240
REMARK   99  A    between atoms: _239  and  _242
REMARK  100  A    between atoms: _242  and  _243
REMARK  101  A    between atoms: _248  and  _250
REMARK  102  A    between atoms: _250  and  _251
REMARK  103  A    between atoms: _250  and  _253
REMARK  104  A    between atoms: _253  and  _254
REMARK  105  A    between atoms: _257  and  _259
REMARK  106  A    between atoms: _259  and  _260
REMARK  107  A    between atoms: _259  and  _262
REMARK  108  A    between atoms: _262  and  _263
REMARK  109  A    between atoms: _266  and  _268
REMARK  110  A    between atoms: _268  and  _269
REMARK  111  A    between atoms: _271  and  _273
REMARK  112  A    between atoms: _273  and  _274
REMARK  113  A    between atoms: _273  and  _276
REMARK  114  A    between atoms: _276  and  _277
REMARK  115  A    between atoms: _277  and  _278
REMARK  116  A    between atoms: _278  and  _279
REMARK  117  A    between atoms: _288  and  _290
REMARK  118  A    between atoms: _290  and  _291
REMARK  119  A    between atoms: _290  and  _293
REMARK  120  A    between atoms: _293  and  _294
REMARK  121  A    between atoms: _299  and  _301
REMARK  122  A    between atoms: _301  and  _302
REMARK  123  A    between atoms: _301  and  _304
REMARK  124  A    between atoms: _304  and  _305
REMARK  125  A    between atoms: _305  and  _306
REMARK  126  A    between atoms: _306  and  _307
REMARK  127  A    between atoms: _316  and  _318
REMARK  128  A    between atoms: _318  and  _319
REMARK  129  A    between atoms: _318  and  _321
REMARK  130  A    between atoms: _321  and  _322
REMARK  131  A    between atoms: _325  and  _327
REMARK  132  A    between atoms: _327  and  _328
REMARK  133  A    between atoms: _327  and  _330
REMARK  134  A    between atoms: _330  and  _331
REMARK  135  A    between atoms: _334  and  _336
REMARK  136  A    between atoms: _336  and  _337
REMARK  137  A    between atoms: _336  and  _339
REMARK  138  A    between atoms: _339  and  _340
REMARK  139  A    between atoms: _343  and  _345
REMARK  140  A    between atoms: _345  and  _346
REMARK  141  A    between atoms: _345  and  _348
REMARK  142  A    between atoms: _348  and  _349
REMARK  143  A    between atoms: _352  and  _354
REMARK  144  A    between atoms: _354  and  _355
REMARK  145  A    between atoms: _357  and  _359
REMARK  146  A    between atoms: _359  and  _360
REMARK  147  A    between atoms: _363  and  _365
REMARK  148  A    between atoms: _365  and  _366
REMARK  149  A    between atoms: _365  and  _368
REMARK  150  A    between atoms: _368  and  _369
REMARK  151  A    between atoms: _372  and  _374
REMARK  152  A    between atoms: _374  and  _375
REMARK  153  A    between atoms: _374  and  _377
REMARK  154  A    between atoms: _377  and  _378
REMARK  155  A    between atoms: _381  and  _383
REMARK  156  A    between atoms: _383  and  _384
REMARK  157  A    between atoms: _383  and  _386
REMARK  158  A    between atoms: _386  and  _387
REMARK  159  A    between atoms: _390  and  _392
REMARK  160  A    between atoms: _392  and  _393
REMARK  161  A    between atoms: _392  and  _395
REMARK  162  A    between atoms: _398  and  _400
REMARK  163  A    between atoms: _400  and  _401
REMARK  164  A    between atoms: _400  and  _403
REMARK  165  A    between atoms: _403  and  _404
REMARK  166  A    between atoms: _407  and  _409
REMARK  167  A    between atoms: _409  and  _410
REMARK  168  A    between atoms: _409  and  _412
REMARK  169  A    between atoms: _412  and  _413
REMARK  170  A    between atoms: _413  and  _414
REMARK  171  A    between atoms: _414  and  _415
REMARK  172  A    between atoms: _415  and  _416
REMARK  173  A    between atoms: _420  and  _422
REMARK  174  A    between atoms: _422  and  _423
REMARK  175  A    between atoms: _422  and  _425
REMARK  176  A    between atoms: _425  and  _426
REMARK  177  A    between atoms: _426  and  _427
REMARK  178  A    between atoms: _429  and  _431
REMARK  179  A    between atoms: _431  and  _432
REMARK  180  A    between atoms: _431  and  _434
REMARK  181  A    between atoms: _434  and  _435
REMARK  182  A    between atoms: _438  and  _440
REMARK  183  A    between atoms: _440  and  _441
REMARK  184  A    between atoms: _443  and  _445
REMARK  185  A    between atoms: _445  and  _446
REMARK  186  A    between atoms: _448  and  _450
REMARK  187  A    between atoms: _450  and  _451
REMARK  188  A    between atoms: _450  and  _453
REMARK  189  A    between atoms: _456  and  _458
REMARK  190  A    between atoms: _458  and  _459
REMARK  191  A    between atoms: _461  and  _463
REMARK  192  A    between atoms: _463  and  _464
REMARK  193  A    between atoms: _466  and  _468
REMARK  194  A    between atoms: _468  and  _469
REMARK  195  A    between atoms: _468  and  _471
REMARK  196  A    between atoms: _471  and  _472
REMARK  197  A    between atoms: _478  and  _480
REMARK  198  A    between atoms: _480  and  _481
REMARK  199  A    between atoms: _480  and  _483
REMARK  200  A    between atoms: _483  and  _484
REMARK  201  A    between atoms: _487  and  _489
REMARK  202  A    between atoms: _489  and  _490
REMARK  203  A    between atoms: _489  and  _492
REMARK  204  A    between atoms: _495  and  _497
REMARK  205  A    between atoms: _497  and  _498
REMARK  206  A    between atoms: _497  and  _500
REMARK  207  A    between atoms: _500  and  _501
REMARK  208  A    between atoms: _504  and  _506
REMARK  209  A    between atoms: _506  and  _507
REMARK  210  A    between atoms: _506  and  _509
REMARK  211  A    between atoms: _509  and  _510
REMARK  212  A    between atoms: _514  and  _515
REMARK  213  A    between atoms: _520  and  _522
REMARK  214  A    between atoms: _522  and  _523
REMARK  215  A    between atoms: _522  and  _525
REMARK  216  A    between atoms: _528  and  _530
REMARK  217  A    between atoms: _530  and  _531
REMARK  218  A    between atoms: _530  and  _533
REMARK  219  A    between atoms: _533  and  _534
REMARK  220  A    between atoms: _539  and  _541
REMARK  221  A    between atoms: _541  and  _542
REMARK  222  A    between atoms: _541  and  _544
REMARK  223  A    between atoms: _544  and  _545
REMARK  224  A    between atoms: _548  and  _550
REMARK  225  A    between atoms: _550  and  _551
REMARK  226  A    between atoms: _550  and  _553
REMARK  227  A    between atoms: _553  and  _554
REMARK  228  A    between atoms: _557  and  _559
REMARK  229  A    between atoms: _559  and  _560
REMARK  230  A    between atoms: _562  and  _564
REMARK  231  A    between atoms: _564  and  _565
REMARK  232  A    between atoms: _564  and  _567
REMARK  233  A    between atoms: _567  and  _568
REMARK  234  A    between atoms: _568  and  _569
REMARK  235  A    between atoms: _569  and  _570
REMARK  236  A    between atoms: _579  and  _581
REMARK  237  A    between atoms: _581  and  _582
REMARK  238  A    between atoms: _581  and  _584
REMARK  239  A    between atoms: _584  and  _585
REMARK                            x       y       z     vdW  Elec       q    Type
REMARK                         _______ _______ _______ _____ _____    ______ ____
ROOT
ATOM      1  O   HOH     1      10.144  17.036  13.877  0.00  0.00    +0.000 OA
ENDROOT
TORSDOF 0
REMARK  Name = ../refined-set-2016/3nu5/3nu5_pocket.pdb
REMARK  239 active torsions:
REMARK  status: ('A' for Active; 'I' for Inactive)
REMARK    1  A    between atoms: _1  and  _3
REMARK    2  A    between atoms: _3  and  _4
REMARK    3  A    between atoms: _3  and  _6
REMARK    4  A    between atoms: _6  and  _7
REMARK    5  A    between atoms: _7  and  _8
REMARK    6  A    between atoms: _8  and  _9
REMARK    7  A    between atoms: _18  and  _20
REMARK    8  A    between atoms: _20  and  _21
REMARK    9  A    between atoms: _20  and  _23
REMARK   10  A    between atoms: _23  and  _24
REMARK   11  A    between atoms: _27  and  _29
REMARK   12  A    between atoms: _29  and  _30
REMARK   13  A    between atoms: _29  and  _32
REMARK   14  A    between atoms: _32  and  _33
REMARK   15  A    between atoms: _36  and  _38
REMARK   16  A    between atoms: _38  and  _39
REMARK   17  A    between atoms: _38  and  _41
REMARK   18  A    between atoms: _41  and  _42
REMARK   19  A    between atoms: _45  and  _47
REMARK   20  A    between atoms: _47  and  _48
REMARK   21  A    between atoms: _47  and  _50
REMARK   22  A    between atoms: _50  and  _51
REMARK   23  A    between atoms: _54  and  _56
REMARK   24  A    between atoms: _56  and  _57
REMARK   25  A    between atoms: _59  and  _61
REMARK   26  A    between atoms: _61  and  _62
REMARK   27  A    between atoms: _65  and  _67
REMARK   28  A    between atoms: _67  and  _68
REMARK   29  A    between atoms: _67  and  _70
REMARK   30  A    between atoms: _70  and  _71
REMARK   31  A    between atoms: _74  and  _76
REMARK   32  A    between atoms: _76  and  _77
REMARK   33  A    between atoms: _76  and  _79
REMARK   34  A    between atoms: _79  and  _80
REMARK   35  A    between atoms: _83  and  _85
REMARK   36  A    between atoms: _85  and  _86
REMARK   37  A    between atoms: _85  and  _88
REMARK   38  A    between atoms: _88  and  _89
REMARK   39  A    between atoms: _92  and  _94
REMARK   40  A    between atoms: _94  and  _95
REMARK   41  A    between atoms: _94  and  _97
REMARK   42  A    between atoms: _100  and  _102
REMARK   43  A    between atoms: _102  and  _103
REMARK   44  A    between atoms: _102  and  _105
REMARK   45  A    between atoms: _105  and  _106
REMARK   46  A    between atoms: _109  and  _111
REMARK   47  A    between atoms: _111  and  _112
REMARK   48  A    between atoms: _111  and  _114
REMARK   49  A    between atoms: _114  and  _115
REMARK   50  A    between atoms: _115  and  _116
REMARK   51  A    between atoms: _116  and  _117
REMARK   52  A    between atoms: _117  and  _118
REMARK   53  A    between atoms: _122  and  _124
REMARK   54  A    between atoms: _124  and  _125
REMARK   55  A    between atoms: _124  and  _127
REMARK   56  A    between atoms: _127  and  _128
REMARK   57  A    between atoms: _128  and  _129
REMARK   58  A    between atoms: _131  and  _133
REMARK   59  A    between atoms: _133  and  _134
REMARK   60  A    between atoms: _133  and  _136
REMARK   61  A    between atoms: _136  and  _137
REMARK   62  A    between atoms: _140  and  _142
REMARK   63  A    between atoms: _142  and  _143
REMARK   64  A    between atoms: _145  and  _147
REMARK   65  A    between atoms: _147  and  _148
REMARK   66  A    between atoms: _150  and  _152
REMARK   67  A    between atoms: _152  and  _153
REMARK   68  A    between atoms: _152  and  _155
REMARK   69  A    between atoms: _158  and  _160
REMARK   70  A    between atoms: _160  and  _161
REMARK   71  A    between atoms: _163  and  _165
REMARK   72  A    between atoms: _165  and  _166
REMARK   73  A    between atoms: _168  and  _170
REMARK   74  A    between atoms: _170  and  _171
REMARK   75  A    between atoms: _170  and  _173
REMARK   76  A    between atoms: _173  and  _174
REMARK   77  A    between atoms: _180  and  _182
REMARK   78  A    between atoms: _182  and  _183
REMARK   79  A    between atoms: _182  and  _185
REMARK   80  A    between atoms: _185  and  _186
REMARK   81  A    between atoms: _189  and  _191
REMARK   82  A    between atoms: _191  and  _192
REMARK   83  A    between atoms: _191  and  _194
REMARK   84  A    between atoms: _197  and  _199
REMARK   85  A    between atoms: _199  and  _200
REMARK   86  A    between atoms: _199  and  _202
REMARK   87  A    between atoms: _202  and  _203
REMARK   88  A    between atoms: _207  and  _208
REMARK   89  A    between atoms: _213  and  _215
REMARK   90  A    between atoms: _215  and  _216
REMARK   91  A    between atoms: _215  and  _218
REMARK   92  A    between atoms: _218  and  _219
REMARK   93  A    between atoms: _223  and  _224
REMARK   94  A    between atoms: _229  and  _231
REMARK   95  A    between atoms: _231  and  _232
REMARK   96  A    between atoms: _231  and  _234
REMARK   97  A    between atoms: _237  and  _239
REMARK   98  A    between atoms: _239  and  _240
REMARK   99  A    between atoms: _239  and  _242
REMARK  100  A    between atoms: _242  and  _243
REMARK  101  A    between atoms: _248  and  _250
REMARK  102  A    between atoms: _250  and  _251
REMARK  103  A    between atoms: _250  and  _253
REMARK  104  A    between atoms: _253  and  _254
REMARK  105  A    between atoms: _257  and  _259
REMARK  106  A    between atoms: _259  and  _260
REMARK  107  A    between atoms: _259  and  _262
REMARK  108  A    between atoms: _262  and  _263
REMARK  109  A    between atoms: _266  and  _268
REMARK  110  A    between atoms: _268  and  _269
REMARK  111  A    between atoms: _271  and  _273
REMARK  112  A    between atoms: _273  and  _274
REMARK  113  A    between atoms: _273  and  _276
REMARK  114  A    between atoms: _276  and  _277
REMARK  115  A    between atoms: _277  and  _278
REMARK  116  A    between atoms: _278  and  _279
REMARK  117  A    between atoms: _288  and  _290
REMARK  118  A    between atoms: _290  and  _291
REMARK  119  A    between atoms: _290  and  _293
REMARK  120  A    between atoms: _293  and  _294
REMARK  121  A    between atoms: _299  and  _301
REMARK  122  A    between atoms: _301  and  _302
REMARK  123  A    between atoms: _301  and  _304
REMARK  124  A    between atoms: _304  and  _305
REMARK  125  A    between atoms: _305  and  _306
REMARK  126  A    between atoms: _306  and  _307
REMARK  127  A    between atoms: _316  and  _318
REMARK  128  A    between atoms: _318  and  _319
REMARK  129  A    between atoms: _318  and  _321
REMARK  130  A    between atoms: _321  and  _322
REMARK  131  A    between atoms: _325  and  _327
REMARK  132  A    between atoms: _327  and  _328
REMARK  133  A    between atoms: _327  and  _330
REMARK  134  A    between atoms: _330  and  _331
REMARK  135  A    between atoms: _334  and  _336
REMARK  136  A    between atoms: _336  and  _337
REMARK  137  A    between atoms: _336  and  _339
REMARK  138  A    between atoms: _339  and  _340
REMARK  139  A    between atoms: _343  and  _345
REMARK  140  A    between atoms: _345  and  _346
REMARK  141  A    between atoms: _345  and  _348
REMARK  142  A    between atoms: _348  and  _349
REMARK  143  A    between atoms: _352  and  _354
REMARK  144  A    between atoms: _354  and  _355
REMARK  145  A    between atoms: _357  and  _359
REMARK  146  A    between atoms: _359  and  _360
REMARK  147  A    between atoms: _363  and  _365
REMARK  148  A    between atoms: _365  and  _366
REMARK  149  A    between atoms: _365  and  _368
REMARK  150  A    between atoms: _368  and  _369
REMARK  151  A    between atoms: _372  and  _374
REMARK  152  A    between atoms: _374  and  _375
REMARK  153  A    between atoms: _374  and  _377
REMARK  154  A    between atoms: _377  and  _378
REMARK  155  A    between atoms: _381  and  _383
REMARK  156  A    between atoms: _383  and  _384
REMARK  157  A    between atoms: _383  and  _386
REMARK  158  A    between atoms: _386  and  _387
REMARK  159  A    between atoms: _390  and  _392
REMARK  160  A    between atoms: _392  and  _393
REMARK  161  A    between atoms: _392  and  _395
REMARK  162  A    between atoms: _398  and  _400
REMARK  163  A    between atoms: _400  and  _401
REMARK  164  A    between atoms: _400  and  _403
REMARK  165  A    between atoms: _403  and  _404
REMARK  166  A    between atoms: _407  and  _409
REMARK  167  A    between atoms: _409  and  _410
REMARK  168  A    between atoms: _409  and  _412
REMARK  169  A    between atoms: _412  and  _413
REMARK  170  A    between atoms: _413  and  _414
REMARK  171  A    between atoms: _414  and  _415
REMARK  172  A    between atoms: _415  and  _416
REMARK  173  A    between atoms: _420  and  _422
REMARK  174  A    between atoms: _422  and  _423
REMARK  175  A    between atoms: _422  and  _425
REMARK  176  A    between atoms: _425  and  _426
REMARK  177  A    between atoms: _426  and  _427
REMARK  178  A    between atoms: _429  and  _431
REMARK  179  A    between atoms: _431  and  _432
REMARK  180  A    between atoms: _431  and  _434
REMARK  181  A    between atoms: _434  and  _435
REMARK  182  A    between atoms: _438  and  _440
REMARK  183  A    between atoms: _440  and  _441
REMARK  184  A    between atoms: _443  and  _445
REMARK  185  A    between atoms: _445  and  _446
REMARK  186  A    between atoms: _448  and  _450
REMARK  187  A    between atoms: _450  and  _451
REMARK  188  A    between atoms: _450  and  _453
REMARK  189  A    between atoms: _456  and  _458
REMARK  190  A    between atoms: _458  and  _459
REMARK  191  A    between atoms: _461  and  _463
REMARK  192  A    between atoms: _463  and  _464
REMARK  193  A    between atoms: _466  and  _468
REMARK  194  A    between atoms: _468  and  _469
REMARK  195  A    between atoms: _468  and  _471
REMARK  196  A    between atoms: _471  and  _472
REMARK  197  A    between atoms: _478  and  _480
REMARK  198  A    between atoms: _480  and  _481
REMARK  199  A    between atoms: _480  and  _483
REMARK  200  A    between atoms: _483  and  _484
REMARK  201  A    between atoms: _487  and  _489
REMARK  202  A    between atoms: _489  and  _490
REMARK  203  A    between atoms: _489  and  _492
REMARK  204  A    between atoms: _495  and  _497
REMARK  205  A    between atoms: _497  and  _498
REMARK  206  A    between atoms: _497  and  _500
REMARK  207  A    between atoms: _500  and  _501
REMARK  208  A    between atoms: _504  and  _506
REMARK  209  A    between atoms: _506  and  _507
REMARK  210  A    between atoms: _506  and  _509
REMARK  211  A    between atoms: _509  and  _510
REMARK  212  A    between atoms: _514  and  _515
REMARK  213  A    between atoms: _520  and  _522
REMARK  214  A    between atoms: _522  and  _523
REMARK  215  A    between atoms: _522  and  _525
REMARK  216  A    between atoms: _528  and  _530
REMARK  217  A    between atoms: _530  and  _531
REMARK  218  A    between atoms: _530  and  _533
REMARK  219  A    between atoms: _533  and  _534
REMARK  220  A    between atoms: _539  and  _541
REMARK  221  A    between atoms: _541  and  _542
REMARK  222  A    between atoms: _541  and  _544
REMARK  223  A    between atoms: _544  and  _545
REMARK  224  A    between atoms: _548  and  _550
REMARK  225  A    between atoms: _550  and  _551
REMARK  226  A    between atoms: _550  and  _553
REMARK  227  A    between atoms: _553  and  _554
REMARK  228  A    between atoms: _557  and  _559
REMARK  229  A    between atoms: _559  and  _560
REMARK  230  A    between atoms: _562  and  _564
REMARK  231  A    between atoms: _564  and  _565
REMARK  232  A    between atoms: _564  and  _567
REMARK  233  A    between atoms: _567  and  _568
REMARK  234  A    between atoms: _568  and  _569
REMARK  235  A    between atoms: _569  and  _570
REMARK  236  A    between atoms: _579  and  _581
REMARK  237  A    between atoms: _581  and  _582
REMARK  238  A    between atoms: _581  and  _584
REMARK  239  A    between atoms: _584  and  _585
REMARK                            x       y       z     vdW  Elec       q    Type
REMARK                         _______ _______ _______ _____ _____    ______ ____
ROOT
ATOM      1  O   HOH     1      25.280  33.734  11.340  0.00  0.00    +0.000 OA
ENDROOT
TORSDOF 0
REMARK  Name = ../refined-set-2016/3nu5/3nu5_pocket.pdb
REMARK  239 active torsions:
REMARK  status: ('A' for Active; 'I' for Inactive)
REMARK    1  A    between atoms: _1  and  _3
REMARK    2  A    between atoms: _3  and  _4
REMARK    3  A    between atoms: _3  and  _6
REMARK    4  A    between atoms: _6  and  _7
REMARK    5  A    between atoms: _7  and  _8
REMARK    6  A    between atoms: _8  and  _9
REMARK    7  A    between atoms: _18  and  _20
REMARK    8  A    between atoms: _20  and  _21
REMARK    9  A    between atoms: _20  and  _23
REMARK   10  A    between atoms: _23  and  _24
REMARK   11  A    between atoms: _27  and  _29
REMARK   12  A    between atoms: _29  and  _30
REMARK   13  A    between atoms: _29  and  _32
REMARK   14  A    between atoms: _32  and  _33
REMARK   15  A    between atoms: _36  and  _38
REMARK   16  A    between atoms: _38  and  _39
REMARK   17  A    between atoms: _38  and  _41
REMARK   18  A    between atoms: _41  and  _42
REMARK   19  A    between atoms: _45  and  _47
REMARK   20  A    between atoms: _47  and  _48
REMARK   21  A    between atoms: _47  and  _50
REMARK   22  A    between atoms: _50  and  _51
REMARK   23  A    between atoms: _54  and  _56
REMARK   24  A    between atoms: _56  and  _57
REMARK   25  A    between atoms: _59  and  _61
REMARK   26  A    between atoms: _61  and  _62
REMARK   27  A    between atoms: _65  and  _67
REMARK   28  A    between atoms: _67  and  _68
REMARK   29  A    between atoms: _67  and  _70
REMARK   30  A    between atoms: _70  and  _71
REMARK   31  A    between atoms: _74  and  _76
REMARK   32  A    between atoms: _76  and  _77
REMARK   33  A    between atoms: _76  and  _79
REMARK   34  A    between atoms: _79  and  _80
REMARK   35  A    between atoms: _83  and  _85
REMARK   36  A    between atoms: _85  and  _86
REMARK   37  A    between atoms: _85  and  _88
REMARK   38  A    between atoms: _88  and  _89
REMARK   39  A    between atoms: _92  and  _94
REMARK   40  A    between atoms: _94  and  _95
REMARK   41  A    between atoms: _94  and  _97
REMARK   42  A    between atoms: _100  and  _102
REMARK   43  A    between atoms: _102  and  _103
REMARK   44  A    between atoms: _102  and  _105
REMARK   45  A    between atoms: _105  and  _106
REMARK   46  A    between atoms: _109  and  _111
REMARK   47  A    between atoms: _111  and  _112
REMARK   48  A    between atoms: _111  and  _114
REMARK   49  A    between atoms: _114  and  _115
REMARK   50  A    between atoms: _115  and  _116
REMARK   51  A    between atoms: _116  and  _117
REMARK   52  A    between atoms: _117  and  _118
REMARK   53  A    between atoms: _122  and  _124
REMARK   54  A    between atoms: _124  and  _125
REMARK   55  A    between atoms: _124  and  _127
REMARK   56  A    between atoms: _127  and  _128
REMARK   57  A    between atoms: _128  and  _129
REMARK   58  A    between atoms: _131  and  _133
REMARK   59  A    between atoms: _133  and  _134
REMARK   60  A    between atoms: _133  and  _136
REMARK   61  A    between atoms: _136  and  _137
REMARK   62  A    between atoms: _140  and  _142
REMARK   63  A    between atoms: _142  and  _143
REMARK   64  A    between atoms: _145  and  _147
REMARK   65  A    between atoms: _147  and  _148
REMARK   66  A    between atoms: _150  and  _152
REMARK   67  A    between atoms: _152  and  _153
REMARK   68  A    between atoms: _152  and  _155
REMARK   69  A    between atoms: _158  and  _160
REMARK   70  A    between atoms: _160  and  _161
REMARK   71  A    between atoms: _163  and  _165
REMARK   72  A    between atoms: _165  and  _166
REMARK   73  A    between atoms: _168  and  _170
REMARK   74  A    between atoms: _170  and  _171
REMARK   75  A    between atoms: _170  and  _173
REMARK   76  A    between atoms: _173  and  _174
REMARK   77  A    between atoms: _180  and  _182
REMARK   78  A    between atoms: _182  and  _183
REMARK   79  A    between atoms: _182  and  _185
REMARK   80  A    between atoms: _185  and  _186
REMARK   81  A    between atoms: _189  and  _191
REMARK   82  A    between atoms: _191  and  _192
REMARK   83  A    between atoms: _191  and  _194
REMARK   84  A    between atoms: _197  and  _199
REMARK   85  A    between atoms: _199  and  _200
REMARK   86  A    between atoms: _199  and  _202
REMARK   87  A    between atoms: _202  and  _203
REMARK   88  A    between atoms: _207  and  _208
REMARK   89  A    between atoms: _213  and  _215
REMARK   90  A    between atoms: _215  and  _216
REMARK   91  A    between atoms: _215  and  _218
REMARK   92  A    between atoms: _218  and  _219
REMARK   93  A    between atoms: _223  and  _224
REMARK   94  A    between atoms: _229  and  _231
REMARK   95  A    between atoms: _231  and  _232
REMARK   96  A    between atoms: _231  and  _234
REMARK   97  A    between atoms: _237  and  _239
REMARK   98  A    between atoms: _239  and  _240
REMARK   99  A    between atoms: _239  and  _242
REMARK  100  A    between atoms: _242  and  _243
REMARK  101  A    between atoms: _248  and  _250
REMARK  102  A    between atoms: _250  and  _251
REMARK  103  A    between atoms: _250  and  _253
REMARK  104  A    between atoms: _253  and  _254
REMARK  105  A    between atoms: _257  and  _259
REMARK  106  A    between atoms: _259  and  _260
REMARK  107  A    between atoms: _259  and  _262
REMARK  108  A    between atoms: _262  and  _263
REMARK  109  A    between atoms: _266  and  _268
REMARK  110  A    between atoms: _268  and  _269
REMARK  111  A    between atoms: _271  and  _273
REMARK  112  A    between atoms: _273  and  _274
REMARK  113  A    between atoms: _273  and  _276
REMARK  114  A    between atoms: _276  and  _277
REMARK  115  A    between atoms: _277  and  _278
REMARK  116  A    between atoms: _278  and  _279
REMARK  117  A    between atoms: _288  and  _290
REMARK  118  A    between atoms: _290  and  _291
REMARK  119  A    between atoms: _290  and  _293
REMARK  120  A    between atoms: _293  and  _294
REMARK  121  A    between atoms: _299  and  _301
REMARK  122  A    between atoms: _301  and  _302
REMARK  123  A    between atoms: _301  and  _304
REMARK  124  A    between atoms: _304  and  _305
REMARK  125  A    between atoms: _305  and  _306
REMARK  126  A    between atoms: _306  and  _307
REMARK  127  A    between atoms: _316  and  _318
REMARK  128  A    between atoms: _318  and  _319
REMARK  129  A    between atoms: _318  and  _321
REMARK  130  A    between atoms: _321  and  _322
REMARK  131  A    between atoms: _325  and  _327
REMARK  132  A    between atoms: _327  and  _328
REMARK  133  A    between atoms: _327  and  _330
REMARK  134  A    between atoms: _330  and  _331
REMARK  135  A    between atoms: _334  and  _336
REMARK  136  A    between atoms: _336  and  _337
REMARK  137  A    between atoms: _336  and  _339
REMARK  138  A    between atoms: _339  and  _340
REMARK  139  A    between atoms: _343  and  _345
REMARK  140  A    between atoms: _345  and  _346
REMARK  141  A    between atoms: _345  and  _348
REMARK  142  A    between atoms: _348  and  _349
REMARK  143  A    between atoms: _352  and  _354
REMARK  144  A    between atoms: _354  and  _355
REMARK  145  A    between atoms: _357  and  _359
REMARK  146  A    between atoms: _359  and  _360
REMARK  147  A    between atoms: _363  and  _365
REMARK  148  A    between atoms: _365  and  _366
REMARK  149  A    between atoms: _365  and  _368
REMARK  150  A    between atoms: _368  and  _369
REMARK  151  A    between atoms: _372  and  _374
REMARK  152  A    between atoms: _374  and  _375
REMARK  153  A    between atoms: _374  and  _377
REMARK  154  A    between atoms: _377  and  _378
REMARK  155  A    between atoms: _381  and  _383
REMARK  156  A    between atoms: _383  and  _384
REMARK  157  A    between atoms: _383  and  _386
REMARK  158  A    between atoms: _386  and  _387
REMARK  159  A    between atoms: _390  and  _392
REMARK  160  A    between atoms: _392  and  _393
REMARK  161  A    between atoms: _392  and  _395
REMARK  162  A    between atoms: _398  and  _400
REMARK  163  A    between atoms: _400  and  _401
REMARK  164  A    between atoms: _400  and  _403
REMARK  165  A    between atoms: _403  and  _404
REMARK  166  A    between atoms: _407  and  _409
REMARK  167  A    between atoms: _409  and  _410
REMARK  168  A    between atoms: _409  and  _412
REMARK  169  A    between atoms: _412  and  _413
REMARK  170  A    between atoms: _413  and  _414
REMARK  171  A    between atoms: _414  and  _415
REMARK  172  A    between atoms: _415  and  _416
REMARK  173  A    between atoms: _420  and  _422
REMARK  174  A    between atoms: _422  and  _423
REMARK  175  A    between atoms: _422  and  _425
REMARK  176  A    between atoms: _425  and  _426
REMARK  177  A    between atoms: _426  and  _427
REMARK  178  A    between atoms: _429  and  _431
REMARK  179  A    between atoms: _431  and  _432
REMARK  180  A    between atoms: _431  and  _434
REMARK  181  A    between atoms: _434  and  _435
REMARK  182  A    between atoms: _438  and  _440
REMARK  183  A    between atoms: _440  and  _441
REMARK  184  A    between atoms: _443  and  _445
REMARK  185  A    between atoms: _445  and  _446
REMARK  186  A    between atoms: _448  and  _450
REMARK  187  A    between atoms: _450  and  _451
REMARK  188  A    between atoms: _450  and  _453
REMARK  189  A    between atoms: _456  and  _458
REMARK  190  A    between atoms: _458  and  _459
REMARK  191  A    between atoms: _461  and  _463
REMARK  192  A    between atoms: _463  and  _464
REMARK  193  A    between atoms: _466  and  _468
REMARK  194  A    between atoms: _468  and  _469
REMARK  195  A    between atoms: _468  and  _471
REMARK  196  A    between atoms: _471  and  _472
REMARK  197  A    between atoms: _478  and  _480
REMARK  198  A    between atoms: _480  and  _481
REMARK  199  A    between atoms: _480  and  _483
REMARK  200  A    between atoms: _483  and  _484
REMARK  201  A    between atoms: _487  and  _489
REMARK  202  A    between atoms: _489  and  _490
REMARK  203  A    between atoms: _489  and  _492
REMARK  204  A    between atoms: _495  and  _497
REMARK  205  A    between atoms: _497  and  _498
REMARK  206  A    between atoms: _497  and  _500
REMARK  207  A    between atoms: _500  and  _501
REMARK  208  A    between atoms: _504  and  _506
REMARK  209  A    between atoms: _506  and  _507
REMARK  210  A    between atoms: _506  and  _509
REMARK  211  A    between atoms: _509  and  _510
REMARK  212  A    between atoms: _514  and  _515
REMARK  213  A    between atoms: _520  and  _522
REMARK  214  A    between atoms: _522  and  _523
REMARK  215  A    between atoms: _522  and  _525
REMARK  216  A    between atoms: _528  and  _530
REMARK  217  A    between atoms: _530  and  _531
REMARK  218  A    between atoms: _530  and  _533
REMARK  219  A    between atoms: _533  and  _534
REMARK  220  A    between atoms: _539  and  _541
REMARK  221  A    between atoms: _541  and  _542
REMARK  222  A    between atoms: _541  and  _544
REMARK  223  A    between atoms: _544  and  _545
REMARK  224  A    between atoms: _548  and  _550
REMARK  225  A    between atoms: _550  and  _551
REMARK  226  A    between atoms: _550  and  _553
REMARK  227  A    between atoms: _553  and  _554
REMARK  228  A    between atoms: _557  and  _559
REMARK  229  A    between atoms: _559  and  _560
REMARK  230  A    between atoms: _562  and  _564
REMARK  231  A    between atoms: _564  and  _565
REMARK  232  A    between atoms: _564  and  _567
REMARK  233  A    between atoms: _567  and  _568
REMARK  234  A    between atoms: _568  and  _569
REMARK  235  A    between atoms: _569  and  _570
REMARK  236  A    between atoms: _579  and  _581
REMARK  237  A    between atoms: _581  and  _582
REMARK  238  A    between atoms: _581  and  _584
REMARK  239  A    between atoms: _584  and  _585
REMARK                            x       y       z     vdW  Elec       q    Type
REMARK                         _______ _______ _______ _____ _____    ______ ____
ROOT
ATOM      1  O   HOH     1       8.985  18.400  11.581  0.00  0.00    +0.000 OA
ENDROOT
TORSDOF 0
REMARK  Name = ../refined-set-2016/3nu5/3nu5_pocket.pdb
REMARK  239 active torsions:
REMARK  status: ('A' for Active; 'I' for Inactive)
REMARK    1  A    between atoms: _1  and  _3
REMARK    2  A    between atoms: _3  and  _4
REMARK    3  A    between atoms: _3  and  _6
REMARK    4  A    between atoms: _6  and  _7
REMARK    5  A    between atoms: _7  and  _8
REMARK    6  A    between atoms: _8  and  _9
REMARK    7  A    between atoms: _18  and  _20
REMARK    8  A    between atoms: _20  and  _21
REMARK    9  A    between atoms: _20  and  _23
REMARK   10  A    between atoms: _23  and  _24
REMARK   11  A    between atoms: _27  and  _29
REMARK   12  A    between atoms: _29  and  _30
REMARK   13  A    between atoms: _29  and  _32
REMARK   14  A    between atoms: _32  and  _33
REMARK   15  A    between atoms: _36  and  _38
REMARK   16  A    between atoms: _38  and  _39
REMARK   17  A    between atoms: _38  and  _41
REMARK   18  A    between atoms: _41  and  _42
REMARK   19  A    between atoms: _45  and  _47
REMARK   20  A    between atoms: _47  and  _48
REMARK   21  A    between atoms: _47  and  _50
REMARK   22  A    between atoms: _50  and  _51
REMARK   23  A    between atoms: _54  and  _56
REMARK   24  A    between atoms: _56  and  _57
REMARK   25  A    between atoms: _59  and  _61
REMARK   26  A    between atoms: _61  and  _62
REMARK   27  A    between atoms: _65  and  _67
REMARK   28  A    between atoms: _67  and  _68
REMARK   29  A    between atoms: _67  and  _70
REMARK   30  A    between atoms: _70  and  _71
REMARK   31  A    between atoms: _74  and  _76
REMARK   32  A    between atoms: _76  and  _77
REMARK   33  A    between atoms: _76  and  _79
REMARK   34  A    between atoms: _79  and  _80
REMARK   35  A    between atoms: _83  and  _85
REMARK   36  A    between atoms: _85  and  _86
REMARK   37  A    between atoms: _85  and  _88
REMARK   38  A    between atoms: _88  and  _89
REMARK   39  A    between atoms: _92  and  _94
REMARK   40  A    between atoms: _94  and  _95
REMARK   41  A    between atoms: _94  and  _97
REMARK   42  A    between atoms: _100  and  _102
REMARK   43  A    between atoms: _102  and  _103
REMARK   44  A    between atoms: _102  and  _105
REMARK   45  A    between atoms: _105  and  _106
REMARK   46  A    between atoms: _109  and  _111
REMARK   47  A    between atoms: _111  and  _112
REMARK   48  A    between atoms: _111  and  _114
REMARK   49  A    between atoms: _114  and  _115
REMARK   50  A    between atoms: _115  and  _116
REMARK   51  A    between atoms: _116  and  _117
REMARK   52  A    between atoms: _117  and  _118
REMARK   53  A    between atoms: _122  and  _124
REMARK   54  A    between atoms: _124  and  _125
REMARK   55  A    between atoms: _124  and  _127
REMARK   56  A    between atoms: _127  and  _128
REMARK   57  A    between atoms: _128  and  _129
REMARK   58  A    between atoms: _131  and  _133
REMARK   59  A    between atoms: _133  and  _134
REMARK   60  A    between atoms: _133  and  _136
REMARK   61  A    between atoms: _136  and  _137
REMARK   62  A    between atoms: _140  and  _142
REMARK   63  A    between atoms: _142  and  _143
REMARK   64  A    between atoms: _145  and  _147
REMARK   65  A    between atoms: _147  and  _148
REMARK   66  A    between atoms: _150  and  _152
REMARK   67  A    between atoms: _152  and  _153
REMARK   68  A    between atoms: _152  and  _155
REMARK   69  A    between atoms: _158  and  _160
REMARK   70  A    between atoms: _160  and  _161
REMARK   71  A    between atoms: _163  and  _165
REMARK   72  A    between atoms: _165  and  _166
REMARK   73  A    between atoms: _168  and  _170
REMARK   74  A    between atoms: _170  and  _171
REMARK   75  A    between atoms: _170  and  _173
REMARK   76  A    between atoms: _173  and  _174
REMARK   77  A    between atoms: _180  and  _182
REMARK   78  A    between atoms: _182  and  _183
REMARK   79  A    between atoms: _182  and  _185
REMARK   80  A    between atoms: _185  and  _186
REMARK   81  A    between atoms: _189  and  _191
REMARK   82  A    between atoms: _191  and  _192
REMARK   83  A    between atoms: _191  and  _194
REMARK   84  A    between atoms: _197  and  _199
REMARK   85  A    between atoms: _199  and  _200
REMARK   86  A    between atoms: _199  and  _202
REMARK   87  A    between atoms: _202  and  _203
REMARK   88  A    between atoms: _207  and  _208
REMARK   89  A    between atoms: _213  and  _215
REMARK   90  A    between atoms: _215  and  _216
REMARK   91  A    between atoms: _215  and  _218
REMARK   92  A    between atoms: _218  and  _219
REMARK   93  A    between atoms: _223  and  _224
REMARK   94  A    between atoms: _229  and  _231
REMARK   95  A    between atoms: _231  and  _232
REMARK   96  A    between atoms: _231  and  _234
REMARK   97  A    between atoms: _237  and  _239
REMARK   98  A    between atoms: _239  and  _240
REMARK   99  A    between atoms: _239  and  _242
REMARK  100  A    between atoms: _242  and  _243
REMARK  101  A    between atoms: _248  and  _250
REMARK  102  A    between atoms: _250  and  _251
REMARK  103  A    between atoms: _250  and  _253
REMARK  104  A    between atoms: _253  and  _254
REMARK  105  A    between atoms: _257  and  _259
REMARK  106  A    between atoms: _259  and  _260
REMARK  107  A    between atoms: _259  and  _262
REMARK  108  A    between atoms: _262  and  _263
REMARK  109  A    between atoms: _266  and  _268
REMARK  110  A    between atoms: _268  and  _269
REMARK  111  A    between atoms: _271  and  _273
REMARK  112  A    between atoms: _273  and  _274
REMARK  113  A    between atoms: _273  and  _276
REMARK  114  A    between atoms: _276  and  _277
REMARK  115  A    between atoms: _277  and  _278
REMARK  116  A    between atoms: _278  and  _279
REMARK  117  A    between atoms: _288  and  _290
REMARK  118  A    between atoms: _290  and  _291
REMARK  119  A    between atoms: _290  and  _293
REMARK  120  A    between atoms: _293  and  _294
REMARK  121  A    between atoms: _299  and  _301
REMARK  122  A    between atoms: _301  and  _302
REMARK  123  A    between atoms: _301  and  _304
REMARK  124  A    between atoms: _304  and  _305
REMARK  125  A    between atoms: _305  and  _306
REMARK  126  A    between atoms: _306  and  _307
REMARK  127  A    between atoms: _316  and  _318
REMARK  128  A    between atoms: _318  and  _319
REMARK  129  A    between atoms: _318  and  _321
REMARK  130  A    between atoms: _321  and  _322
REMARK  131  A    between atoms: _325  and  _327
REMARK  132  A    between atoms: _327  and  _328
REMARK  133  A    between atoms: _327  and  _330
REMARK  134  A    between atoms: _330  and  _331
REMARK  135  A    between atoms: _334  and  _336
REMARK  136  A    between atoms: _336  and  _337
REMARK  137  A    between atoms: _336  and  _339
REMARK  138  A    between atoms: _339  and  _340
REMARK  139  A    between atoms: _343  and  _345
REMARK  140  A    between atoms: _345  and  _346
REMARK  141  A    between atoms: _345  and  _348
REMARK  142  A    between atoms: _348  and  _349
REMARK  143  A    between atoms: _352  and  _354
REMARK  144  A    between atoms: _354  and  _355
REMARK  145  A    between atoms: _357  and  _359
REMARK  146  A    between atoms: _359  and  _360
REMARK  147  A    between atoms: _363  and  _365
REMARK  148  A    between atoms: _365  and  _366
REMARK  149  A    between atoms: _365  and  _368
REMARK  150  A    between atoms: _368  and  _369
REMARK  151  A    between atoms: _372  and  _374
REMARK  152  A    between atoms: _374  and  _375
REMARK  153  A    between atoms: _374  and  _377
REMARK  154  A    between atoms: _377  and  _378
REMARK  155  A    between atoms: _381  and  _383
REMARK  156  A    between atoms: _383  and  _384
REMARK  157  A    between atoms: _383  and  _386
REMARK  158  A    between atoms: _386  and  _387
REMARK  159  A    between atoms: _390  and  _392
REMARK  160  A    between atoms: _392  and  _393
REMARK  161  A    between atoms: _392  and  _395
REMARK  162  A    between atoms: _398  and  _400
REMARK  163  A    between atoms: _400  and  _401
REMARK  164  A    between atoms: _400  and  _403
REMARK  165  A    between atoms: _403  and  _404
REMARK  166  A    between atoms: _407  and  _409
REMARK  167  A    between atoms: _409  and  _410
REMARK  168  A    between atoms: _409  and  _412
REMARK  169  A    between atoms: _412  and  _413
REMARK  170  A    between atoms: _413  and  _414
REMARK  171  A    between atoms: _414  and  _415
REMARK  172  A    between atoms: _415  and  _416
REMARK  173  A    between atoms: _420  and  _422
REMARK  174  A    between atoms: _422  and  _423
REMARK  175  A    between atoms: _422  and  _425
REMARK  176  A    between atoms: _425  and  _426
REMARK  177  A    between atoms: _426  and  _427
REMARK  178  A    between atoms: _429  and  _431
REMARK  179  A    between atoms: _431  and  _432
REMARK  180  A    between atoms: _431  and  _434
REMARK  181  A    between atoms: _434  and  _435
REMARK  182  A    between atoms: _438  and  _440
REMARK  183  A    between atoms: _440  and  _441
REMARK  184  A    between atoms: _443  and  _445
REMARK  185  A    between atoms: _445  and  _446
REMARK  186  A    between atoms: _448  and  _450
REMARK  187  A    between atoms: _450  and  _451
REMARK  188  A    between atoms: _450  and  _453
REMARK  189  A    between atoms: _456  and  _458
REMARK  190  A    between atoms: _458  and  _459
REMARK  191  A    between atoms: _461  and  _463
REMARK  192  A    between atoms: _463  and  _464
REMARK  193  A    between atoms: _466  and  _468
REMARK  194  A    between atoms: _468  and  _469
REMARK  195  A    between atoms: _468  and  _471
REMARK  196  A    between atoms: _471  and  _472
REMARK  197  A    between atoms: _478  and  _480
REMARK  198  A    between atoms: _480  and  _481
REMARK  199  A    between atoms: _480  and  _483
REMARK  200  A    between atoms: _483  and  _484
REMARK  201  A    between atoms: _487  and  _489
REMARK  202  A    between atoms: _489  and  _490
REMARK  203  A    between atoms: _489  and  _492
REMARK  204  A    between atoms: _495  and  _497
REMARK  205  A    between atoms: _497  and  _498
REMARK  206  A    between atoms: _497  and  _500
REMARK  207  A    between atoms: _500  and  _501
REMARK  208  A    between atoms: _504  and  _506
REMARK  209  A    between atoms: _506  and  _507
REMARK  210  A    between atoms: _506  and  _509
REMARK  211  A    between atoms: _509  and  _510
REMARK  212  A    between atoms: _514  and  _515
REMARK  213  A    between atoms: _520  and  _522
REMARK  214  A    between atoms: _522  and  _523
REMARK  215  A    between atoms: _522  and  _525
REMARK  216  A    between atoms: _528  and  _530
REMARK  217  A    between atoms: _530  and  _531
REMARK  218  A    between atoms: _530  and  _533
REMARK  219  A    between atoms: _533  and  _534
REMARK  220  A    between atoms: _539  and  _541
REMARK  221  A    between atoms: _541  and  _542
REMARK  222  A    between atoms: _541  and  _544
REMARK  223  A    between atoms: _544  and  _545
REMARK  224  A    between atoms: _548  and  _550
REMARK  225  A    between atoms: _550  and  _551
REMARK  226  A    between atoms: _550  and  _553
REMARK  227  A    between atoms: _553  and  _554
REMARK  228  A    between atoms: _557  and  _559
REMARK  229  A    between atoms: _559  and  _560
REMARK  230  A    between atoms: _562  and  _564
REMARK  231  A    between atoms: _564  and  _565
REMARK  232  A    between atoms: _564  and  _567
REMARK  233  A    between atoms: _567  and  _568
REMARK  234  A    between atoms: _568  and  _569
REMARK  235  A    between atoms: _569  and  _570
REMARK  236  A    between atoms: _579  and  _581
REMARK  237  A    between atoms: _581  and  _582
REMARK  238  A    between atoms: _581  and  _584
REMARK  239  A    between atoms: _584  and  _585
REMARK                            x       y       z     vdW  Elec       q    Type
REMARK                         _______ _______ _______ _____ _____    ______ ____
ROOT
ATOM      1  O   HOH     1      20.664  33.586  10.501  0.00  0.00    +0.000 OA
ENDROOT
TORSDOF 0
REMARK  Name = ../refined-set-2016/3nu5/3nu5_pocket.pdb
REMARK  239 active torsions:
REMARK  status: ('A' for Active; 'I' for Inactive)
REMARK    1  A    between atoms: _1  and  _3
REMARK    2  A    between atoms: _3  and  _4
REMARK    3  A    between atoms: _3  and  _6
REMARK    4  A    between atoms: _6  and  _7
REMARK    5  A    between atoms: _7  and  _8
REMARK    6  A    between atoms: _8  and  _9
REMARK    7  A    between atoms: _18  and  _20
REMARK    8  A    between atoms: _20  and  _21
REMARK    9  A    between atoms: _20  and  _23
REMARK   10  A    between atoms: _23  and  _24
REMARK   11  A    between atoms: _27  and  _29
REMARK   12  A    between atoms: _29  and  _30
REMARK   13  A    between atoms: _29  and  _32
REMARK   14  A    between atoms: _32  and  _33
REMARK   15  A    between atoms: _36  and  _38
REMARK   16  A    between atoms: _38  and  _39
REMARK   17  A    between atoms: _38  and  _41
REMARK   18  A    between atoms: _41  and  _42
REMARK   19  A    between atoms: _45  and  _47
REMARK   20  A    between atoms: _47  and  _48
REMARK   21  A    between atoms: _47  and  _50
REMARK   22  A    between atoms: _50  and  _51
REMARK   23  A    between atoms: _54  and  _56
REMARK   24  A    between atoms: _56  and  _57
REMARK   25  A    between atoms: _59  and  _61
REMARK   26  A    between atoms: _61  and  _62
REMARK   27  A    between atoms: _65  and  _67
REMARK   28  A    between atoms: _67  and  _68
REMARK   29  A    between atoms: _67  and  _70
REMARK   30  A    between atoms: _70  and  _71
REMARK   31  A    between atoms: _74  and  _76
REMARK   32  A    between atoms: _76  and  _77
REMARK   33  A    between atoms: _76  and  _79
REMARK   34  A    between atoms: _79  and  _80
REMARK   35  A    between atoms: _83  and  _85
REMARK   36  A    between atoms: _85  and  _86
REMARK   37  A    between atoms: _85  and  _88
REMARK   38  A    between atoms: _88  and  _89
REMARK   39  A    between atoms: _92  and  _94
REMARK   40  A    between atoms: _94  and  _95
REMARK   41  A    between atoms: _94  and  _97
REMARK   42  A    between atoms: _100  and  _102
REMARK   43  A    between atoms: _102  and  _103
REMARK   44  A    between atoms: _102  and  _105
REMARK   45  A    between atoms: _105  and  _106
REMARK   46  A    between atoms: _109  and  _111
REMARK   47  A    between atoms: _111  and  _112
REMARK   48  A    between atoms: _111  and  _114
REMARK   49  A    between atoms: _114  and  _115
REMARK   50  A    between atoms: _115  and  _116
REMARK   51  A    between atoms: _116  and  _117
REMARK   52  A    between atoms: _117  and  _118
REMARK   53  A    between atoms: _122  and  _124
REMARK   54  A    between atoms: _124  and  _125
REMARK   55  A    between atoms: _124  and  _127
REMARK   56  A    between atoms: _127  and  _128
REMARK   57  A    between atoms: _128  and  _129
REMARK   58  A    between atoms: _131  and  _133
REMARK   59  A    between atoms: _133  and  _134
REMARK   60  A    between atoms: _133  and  _136
REMARK   61  A    between atoms: _136  and  _137
REMARK   62  A    between atoms: _140  and  _142
REMARK   63  A    between atoms: _142  and  _143
REMARK   64  A    between atoms: _145  and  _147
REMARK   65  A    between atoms: _147  and  _148
REMARK   66  A    between atoms: _150  and  _152
REMARK   67  A    between atoms: _152  and  _153
REMARK   68  A    between atoms: _152  and  _155
REMARK   69  A    between atoms: _158  and  _160
REMARK   70  A    between atoms: _160  and  _161
REMARK   71  A    between atoms: _163  and  _165
REMARK   72  A    between atoms: _165  and  _166
REMARK   73  A    between atoms: _168  and  _170
REMARK   74  A    between atoms: _170  and  _171
REMARK   75  A    between atoms: _170  and  _173
REMARK   76  A    between atoms: _173  and  _174
REMARK   77  A    between atoms: _180  and  _182
REMARK   78  A    between atoms: _182  and  _183
REMARK   79  A    between atoms: _182  and  _185
REMARK   80  A    between atoms: _185  and  _186
REMARK   81  A    between atoms: _189  and  _191
REMARK   82  A    between atoms: _191  and  _192
REMARK   83  A    between atoms: _191  and  _194
REMARK   84  A    between atoms: _197  and  _199
REMARK   85  A    between atoms: _199  and  _200
REMARK   86  A    between atoms: _199  and  _202
REMARK   87  A    between atoms: _202  and  _203
REMARK   88  A    between atoms: _207  and  _208
REMARK   89  A    between atoms: _213  and  _215
REMARK   90  A    between atoms: _215  and  _216
REMARK   91  A    between atoms: _215  and  _218
REMARK   92  A    between atoms: _218  and  _219
REMARK   93  A    between atoms: _223  and  _224
REMARK   94  A    between atoms: _229  and  _231
REMARK   95  A    between atoms: _231  and  _232
REMARK   96  A    between atoms: _231  and  _234
REMARK   97  A    between atoms: _237  and  _239
REMARK   98  A    between atoms: _239  and  _240
REMARK   99  A    between atoms: _239  and  _242
REMARK  100  A    between atoms: _242  and  _243
REMARK  101  A    between atoms: _248  and  _250
REMARK  102  A    between atoms: _250  and  _251
REMARK  103  A    between atoms: _250  and  _253
REMARK  104  A    between atoms: _253  and  _254
REMARK  105  A    between atoms: _257  and  _259
REMARK  106  A    between atoms: _259  and  _260
REMARK  107  A    between atoms: _259  and  _262
REMARK  108  A    between atoms: _262  and  _263
REMARK  109  A    between atoms: _266  and  _268
REMARK  110  A    between atoms: _268  and  _269
REMARK  111  A    between atoms: _271  and  _273
REMARK  112  A    between atoms: _273  and  _274
REMARK  113  A    between atoms: _273  and  _276
REMARK  114  A    between atoms: _276  and  _277
REMARK  115  A    between atoms: _277  and  _278
REMARK  116  A    between atoms: _278  and  _279
REMARK  117  A    between atoms: _288  and  _290
REMARK  118  A    between atoms: _290  and  _291
REMARK  119  A    between atoms: _290  and  _293
REMARK  120  A    between atoms: _293  and  _294
REMARK  121  A    between atoms: _299  and  _301
REMARK  122  A    between atoms: _301  and  _302
REMARK  123  A    between atoms: _301  and  _304
REMARK  124  A    between atoms: _304  and  _305
REMARK  125  A    between atoms: _305  and  _306
REMARK  126  A    between atoms: _306  and  _307
REMARK  127  A    between atoms: _316  and  _318
REMARK  128  A    between atoms: _318  and  _319
REMARK  129  A    between atoms: _318  and  _321
REMARK  130  A    between atoms: _321  and  _322
REMARK  131  A    between atoms: _325  and  _327
REMARK  132  A    between atoms: _327  and  _328
REMARK  133  A    between atoms: _327  and  _330
REMARK  134  A    between atoms: _330  and  _331
REMARK  135  A    between atoms: _334  and  _336
REMARK  136  A    between atoms: _336  and  _337
REMARK  137  A    between atoms: _336  and  _339
REMARK  138  A    between atoms: _339  and  _340
REMARK  139  A    between atoms: _343  and  _345
REMARK  140  A    between atoms: _345  and  _346
REMARK  141  A    between atoms: _345  and  _348
REMARK  142  A    between atoms: _348  and  _349
REMARK  143  A    between atoms: _352  and  _354
REMARK  144  A    between atoms: _354  and  _355
REMARK  145  A    between atoms: _357  and  _359
REMARK  146  A    between atoms: _359  and  _360
REMARK  147  A    between atoms: _363  and  _365
REMARK  148  A    between atoms: _365  and  _366
REMARK  149  A    between atoms: _365  and  _368
REMARK  150  A    between atoms: _368  and  _369
REMARK  151  A    between atoms: _372  and  _374
REMARK  152  A    between atoms: _374  and  _375
REMARK  153  A    between atoms: _374  and  _377
REMARK  154  A    between atoms: _377  and  _378
REMARK  155  A    between atoms: _381  and  _383
REMARK  156  A    between atoms: _383  and  _384
REMARK  157  A    between atoms: _383  and  _386
REMARK  158  A    between atoms: _386  and  _387
REMARK  159  A    between atoms: _390  and  _392
REMARK  160  A    between atoms: _392  and  _393
REMARK  161  A    between atoms: _392  and  _395
REMARK  162  A    between atoms: _398  and  _400
REMARK  163  A    between atoms: _400  and  _401
REMARK  164  A    between atoms: _400  and  _403
REMARK  165  A    between atoms: _403  and  _404
REMARK  166  A    between atoms: _407  and  _409
REMARK  167  A    between atoms: _409  and  _410
REMARK  168  A    between atoms: _409  and  _412
REMARK  169  A    between atoms: _412  and  _413
REMARK  170  A    between atoms: _413  and  _414
REMARK  171  A    between atoms: _414  and  _415
REMARK  172  A    between atoms: _415  and  _416
REMARK  173  A    between atoms: _420  and  _422
REMARK  174  A    between atoms: _422  and  _423
REMARK  175  A    between atoms: _422  and  _425
REMARK  176  A    between atoms: _425  and  _426
REMARK  177  A    between atoms: _426  and  _427
REMARK  178  A    between atoms: _429  and  _431
REMARK  179  A    between atoms: _431  and  _432
REMARK  180  A    between atoms: _431  and  _434
REMARK  181  A    between atoms: _434  and  _435
REMARK  182  A    between atoms: _438  and  _440
REMARK  183  A    between atoms: _440  and  _441
REMARK  184  A    between atoms: _443  and  _445
REMARK  185  A    between atoms: _445  and  _446
REMARK  186  A    between atoms: _448  and  _450
REMARK  187  A    between atoms: _450  and  _451
REMARK  188  A    between atoms: _450  and  _453
REMARK  189  A    between atoms: _456  and  _458
REMARK  190  A    between atoms: _458  and  _459
REMARK  191  A    between atoms: _461  and  _463
REMARK  192  A    between atoms: _463  and  _464
REMARK  193  A    between atoms: _466  and  _468
REMARK  194  A    between atoms: _468  and  _469
REMARK  195  A    between atoms: _468  and  _471
REMARK  196  A    between atoms: _471  and  _472
REMARK  197  A    between atoms: _478  and  _480
REMARK  198  A    between atoms: _480  and  _481
REMARK  199  A    between atoms: _480  and  _483
REMARK  200  A    between atoms: _483  and  _484
REMARK  201  A    between atoms: _487  and  _489
REMARK  202  A    between atoms: _489  and  _490
REMARK  203  A    between atoms: _489  and  _492
REMARK  204  A    between atoms: _495  and  _497
REMARK  205  A    between atoms: _497  and  _498
REMARK  206  A    between atoms: _497  and  _500
REMARK  207  A    between atoms: _500  and  _501
REMARK  208  A    between atoms: _504  and  _506
REMARK  209  A    between atoms: _506  and  _507
REMARK  210  A    between atoms: _506  and  _509
REMARK  211  A    between atoms: _509  and  _510
REMARK  212  A    between atoms: _514  and  _515
REMARK  213  A    between atoms: _520  and  _522
REMARK  214  A    between atoms: _522  and  _523
REMARK  215  A    between atoms: _522  and  _525
REMARK  216  A    between atoms: _528  and  _530
REMARK  217  A    between atoms: _530  and  _531
REMARK  218  A    between atoms: _530  and  _533
REMARK  219  A    between atoms: _533  and  _534
REMARK  220  A    between atoms: _539  and  _541
REMARK  221  A    between atoms: _541  and  _542
REMARK  222  A    between atoms: _541  and  _544
REMARK  223  A    between atoms: _544  and  _545
REMARK  224  A    between atoms: _548  and  _550
REMARK  225  A    between atoms: _550  and  _551
REMARK  226  A    between atoms: _550  and  _553
REMARK  227  A    between atoms: _553  and  _554
REMARK  228  A    between atoms: _557  and  _559
REMARK  229  A    between atoms: _559  and  _560
REMARK  230  A    between atoms: _562  and  _564
REMARK  231  A    between atoms: _564  and  _565
REMARK  232  A    between atoms: _564  and  _567
REMARK  233  A    between atoms: _567  and  _568
REMARK  234  A    between atoms: _568  and  _569
REMARK  235  A    between atoms: _569  and  _570
REMARK  236  A    between atoms: _579  and  _581
REMARK  237  A    between atoms: _581  and  _582
REMARK  238  A    between atoms: _581  and  _584
REMARK  239  A    between atoms: _584  and  _585
REMARK                            x       y       z     vdW  Elec       q    Type
REMARK                         _______ _______ _______ _____ _____    ______ ____
ROOT
ATOM      1  O   HOH     1      24.126  28.988  16.294  0.00  0.00    +0.000 OA
ENDROOT
TORSDOF 0
REMARK  Name = ../refined-set-2016/3nu5/3nu5_pocket.pdb
REMARK  239 active torsions:
REMARK  status: ('A' for Active; 'I' for Inactive)
REMARK    1  A    between atoms: _1  and  _3
REMARK    2  A    between atoms: _3  and  _4
REMARK    3  A    between atoms: _3  and  _6
REMARK    4  A    between atoms: _6  and  _7
REMARK    5  A    between atoms: _7  and  _8
REMARK    6  A    between atoms: _8  and  _9
REMARK    7  A    between atoms: _18  and  _20
REMARK    8  A    between atoms: _20  and  _21
REMARK    9  A    between atoms: _20  and  _23
REMARK   10  A    between atoms: _23  and  _24
REMARK   11  A    between atoms: _27  and  _29
REMARK   12  A    between atoms: _29  and  _30
REMARK   13  A    between atoms: _29  and  _32
REMARK   14  A    between atoms: _32  and  _33
REMARK   15  A    between atoms: _36  and  _38
REMARK   16  A    between atoms: _38  and  _39
REMARK   17  A    between atoms: _38  and  _41
REMARK   18  A    between atoms: _41  and  _42
REMARK   19  A    between atoms: _45  and  _47
REMARK   20  A    between atoms: _47  and  _48
REMARK   21  A    between atoms: _47  and  _50
REMARK   22  A    between atoms: _50  and  _51
REMARK   23  A    between atoms: _54  and  _56
REMARK   24  A    between atoms: _56  and  _57
REMARK   25  A    between atoms: _59  and  _61
REMARK   26  A    between atoms: _61  and  _62
REMARK   27  A    between atoms: _65  and  _67
REMARK   28  A    between atoms: _67  and  _68
REMARK   29  A    between atoms: _67  and  _70
REMARK   30  A    between atoms: _70  and  _71
REMARK   31  A    between atoms: _74  and  _76
REMARK   32  A    between atoms: _76  and  _77
REMARK   33  A    between atoms: _76  and  _79
REMARK   34  A    between atoms: _79  and  _80
REMARK   35  A    between atoms: _83  and  _85
REMARK   36  A    between atoms: _85  and  _86
REMARK   37  A    between atoms: _85  and  _88
REMARK   38  A    between atoms: _88  and  _89
REMARK   39  A    between atoms: _92  and  _94
REMARK   40  A    between atoms: _94  and  _95
REMARK   41  A    between atoms: _94  and  _97
REMARK   42  A    between atoms: _100  and  _102
REMARK   43  A    between atoms: _102  and  _103
REMARK   44  A    between atoms: _102  and  _105
REMARK   45  A    between atoms: _105  and  _106
REMARK   46  A    between atoms: _109  and  _111
REMARK   47  A    between atoms: _111  and  _112
REMARK   48  A    between atoms: _111  and  _114
REMARK   49  A    between atoms: _114  and  _115
REMARK   50  A    between atoms: _115  and  _116
REMARK   51  A    between atoms: _116  and  _117
REMARK   52  A    between atoms: _117  and  _118
REMARK   53  A    between atoms: _122  and  _124
REMARK   54  A    between atoms: _124  and  _125
REMARK   55  A    between atoms: _124  and  _127
REMARK   56  A    between atoms: _127  and  _128
REMARK   57  A    between atoms: _128  and  _129
REMARK   58  A    between atoms: _131  and  _133
REMARK   59  A    between atoms: _133  and  _134
REMARK   60  A    between atoms: _133  and  _136
REMARK   61  A    between atoms: _136  and  _137
REMARK   62  A    between atoms: _140  and  _142
REMARK   63  A    between atoms: _142  and  _143
REMARK   64  A    between atoms: _145  and  _147
REMARK   65  A    between atoms: _147  and  _148
REMARK   66  A    between atoms: _150  and  _152
REMARK   67  A    between atoms: _152  and  _153
REMARK   68  A    between atoms: _152  and  _155
REMARK   69  A    between atoms: _158  and  _160
REMARK   70  A    between atoms: _160  and  _161
REMARK   71  A    between atoms: _163  and  _165
REMARK   72  A    between atoms: _165  and  _166
REMARK   73  A    between atoms: _168  and  _170
REMARK   74  A    between atoms: _170  and  _171
REMARK   75  A    between atoms: _170  and  _173
REMARK   76  A    between atoms: _173  and  _174
REMARK   77  A    between atoms: _180  and  _182
REMARK   78  A    between atoms: _182  and  _183
REMARK   79  A    between atoms: _182  and  _185
REMARK   80  A    between atoms: _185  and  _186
REMARK   81  A    between atoms: _189  and  _191
REMARK   82  A    between atoms: _191  and  _192
REMARK   83  A    between atoms: _191  and  _194
REMARK   84  A    between atoms: _197  and  _199
REMARK   85  A    between atoms: _199  and  _200
REMARK   86  A    between atoms: _199  and  _202
REMARK   87  A    between atoms: _202  and  _203
REMARK   88  A    between atoms: _207  and  _208
REMARK   89  A    between atoms: _213  and  _215
REMARK   90  A    between atoms: _215  and  _216
REMARK   91  A    between atoms: _215  and  _218
REMARK   92  A    between atoms: _218  and  _219
REMARK   93  A    between atoms: _223  and  _224
REMARK   94  A    between atoms: _229  and  _231
REMARK   95  A    between atoms: _231  and  _232
REMARK   96  A    between atoms: _231  and  _234
REMARK   97  A    between atoms: _237  and  _239
REMARK   98  A    between atoms: _239  and  _240
REMARK   99  A    between atoms: _239  and  _242
REMARK  100  A    between atoms: _242  and  _243
REMARK  101  A    between atoms: _248  and  _250
REMARK  102  A    between atoms: _250  and  _251
REMARK  103  A    between atoms: _250  and  _253
REMARK  104  A    between atoms: _253  and  _254
REMARK  105  A    between atoms: _257  and  _259
REMARK  106  A    between atoms: _259  and  _260
REMARK  107  A    between atoms: _259  and  _262
REMARK  108  A    between atoms: _262  and  _263
REMARK  109  A    between atoms: _266  and  _268
REMARK  110  A    between atoms: _268  and  _269
REMARK  111  A    between atoms: _271  and  _273
REMARK  112  A    between atoms: _273  and  _274
REMARK  113  A    between atoms: _273  and  _276
REMARK  114  A    between atoms: _276  and  _277
REMARK  115  A    between atoms: _277  and  _278
REMARK  116  A    between atoms: _278  and  _279
REMARK  117  A    between atoms: _288  and  _290
REMARK  118  A    between atoms: _290  and  _291
REMARK  119  A    between atoms: _290  and  _293
REMARK  120  A    between atoms: _293  and  _294
REMARK  121  A    between atoms: _299  and  _301
REMARK  122  A    between atoms: _301  and  _302
REMARK  123  A    between atoms: _301  and  _304
REMARK  124  A    between atoms: _304  and  _305
REMARK  125  A    between atoms: _305  and  _306
REMARK  126  A    between atoms: _306  and  _307
REMARK  127  A    between atoms: _316  and  _318
REMARK  128  A    between atoms: _318  and  _319
REMARK  129  A    between atoms: _318  and  _321
REMARK  130  A    between atoms: _321  and  _322
REMARK  131  A    between atoms: _325  and  _327
REMARK  132  A    between atoms: _327  and  _328
REMARK  133  A    between atoms: _327  and  _330
REMARK  134  A    between atoms: _330  and  _331
REMARK  135  A    between atoms: _334  and  _336
REMARK  136  A    between atoms: _336  and  _337
REMARK  137  A    between atoms: _336  and  _339
REMARK  138  A    between atoms: _339  and  _340
REMARK  139  A    between atoms: _343  and  _345
REMARK  140  A    between atoms: _345  and  _346
REMARK  141  A    between atoms: _345  and  _348
REMARK  142  A    between atoms: _348  and  _349
REMARK  143  A    between atoms: _352  and  _354
REMARK  144  A    between atoms: _354  and  _355
REMARK  145  A    between atoms: _357  and  _359
REMARK  146  A    between atoms: _359  and  _360
REMARK  147  A    between atoms: _363  and  _365
REMARK  148  A    between atoms: _365  and  _366
REMARK  149  A    between atoms: _365  and  _368
REMARK  150  A    between atoms: _368  and  _369
REMARK  151  A    between atoms: _372  and  _374
REMARK  152  A    between atoms: _374  and  _375
REMARK  153  A    between atoms: _374  and  _377
REMARK  154  A    between atoms: _377  and  _378
REMARK  155  A    between atoms: _381  and  _383
REMARK  156  A    between atoms: _383  and  _384
REMARK  157  A    between atoms: _383  and  _386
REMARK  158  A    between atoms: _386  and  _387
REMARK  159  A    between atoms: _390  and  _392
REMARK  160  A    between atoms: _392  and  _393
REMARK  161  A    between atoms: _392  and  _395
REMARK  162  A    between atoms: _398  and  _400
REMARK  163  A    between atoms: _400  and  _401
REMARK  164  A    between atoms: _400  and  _403
REMARK  165  A    between atoms: _403  and  _404
REMARK  166  A    between atoms: _407  and  _409
REMARK  167  A    between atoms: _409  and  _410
REMARK  168  A    between atoms: _409  and  _412
REMARK  169  A    between atoms: _412  and  _413
REMARK  170  A    between atoms: _413  and  _414
REMARK  171  A    between atoms: _414  and  _415
REMARK  172  A    between atoms: _415  and  _416
REMARK  173  A    between atoms: _420  and  _422
REMARK  174  A    between atoms: _422  and  _423
REMARK  175  A    between atoms: _422  and  _425
REMARK  176  A    between atoms: _425  and  _426
REMARK  177  A    between atoms: _426  and  _427
REMARK  178  A    between atoms: _429  and  _431
REMARK  179  A    between atoms: _431  and  _432
REMARK  180  A    between atoms: _431  and  _434
REMARK  181  A    between atoms: _434  and  _435
REMARK  182  A    between atoms: _438  and  _440
REMARK  183  A    between atoms: _440  and  _441
REMARK  184  A    between atoms: _443  and  _445
REMARK  185  A    between atoms: _445  and  _446
REMARK  186  A    between atoms: _448  and  _450
REMARK  187  A    between atoms: _450  and  _451
REMARK  188  A    between atoms: _450  and  _453
REMARK  189  A    between atoms: _456  and  _458
REMARK  190  A    between atoms: _458  and  _459
REMARK  191  A    between atoms: _461  and  _463
REMARK  192  A    between atoms: _463  and  _464
REMARK  193  A    between atoms: _466  and  _468
REMARK  194  A    between atoms: _468  and  _469
REMARK  195  A    between atoms: _468  and  _471
REMARK  196  A    between atoms: _471  and  _472
REMARK  197  A    between atoms: _478  and  _480
REMARK  198  A    between atoms: _480  and  _481
REMARK  199  A    between atoms: _480  and  _483
REMARK  200  A    between atoms: _483  and  _484
REMARK  201  A    between atoms: _487  and  _489
REMARK  202  A    between atoms: _489  and  _490
REMARK  203  A    between atoms: _489  and  _492
REMARK  204  A    between atoms: _495  and  _497
REMARK  205  A    between atoms: _497  and  _498
REMARK  206  A    between atoms: _497  and  _500
REMARK  207  A    between atoms: _500  and  _501
REMARK  208  A    between atoms: _504  and  _506
REMARK  209  A    between atoms: _506  and  _507
REMARK  210  A    between atoms: _506  and  _509
REMARK  211  A    between atoms: _509  and  _510
REMARK  212  A    between atoms: _514  and  _515
REMARK  213  A    between atoms: _520  and  _522
REMARK  214  A    between atoms: _522  and  _523
REMARK  215  A    between atoms: _522  and  _525
REMARK  216  A    between atoms: _528  and  _530
REMARK  217  A    between atoms: _530  and  _531
REMARK  218  A    between atoms: _530  and  _533
REMARK  219  A    between atoms: _533  and  _534
REMARK  220  A    between atoms: _539  and  _541
REMARK  221  A    between atoms: _541  and  _542
REMARK  222  A    between atoms: _541  and  _544
REMARK  223  A    between atoms: _544  and  _545
REMARK  224  A    between atoms: _548  and  _550
REMARK  225  A    between atoms: _550  and  _551
REMARK  226  A    between atoms: _550  and  _553
REMARK  227  A    between atoms: _553  and  _554
REMARK  228  A    between atoms: _557  and  _559
REMARK  229  A    between atoms: _559  and  _560
REMARK  230  A    between atoms: _562  and  _564
REMARK  231  A    between atoms: _564  and  _565
REMARK  232  A    between atoms: _564  and  _567
REMARK  233  A    between atoms: _567  and  _568
REMARK  234  A    between atoms: _568  and  _569
REMARK  235  A    between atoms: _569  and  _570
REMARK  236  A    between atoms: _579  and  _581
REMARK  237  A    between atoms: _581  and  _582
REMARK  238  A    between atoms: _581  and  _584
REMARK  239  A    between atoms: _584  and  _585
REMARK                            x       y       z     vdW  Elec       q    Type
REMARK                         _______ _______ _______ _____ _____    ______ ____
ROOT
ATOM      1  O   HOH     1      23.678  30.225  14.074  0.00  0.00    +0.000 OA
ENDROOT
TORSDOF 0
REMARK  Name = ../refined-set-2016/3nu5/3nu5_pocket.pdb
REMARK  239 active torsions:
REMARK  status: ('A' for Active; 'I' for Inactive)
REMARK    1  A    between atoms: _1  and  _3
REMARK    2  A    between atoms: _3  and  _4
REMARK    3  A    between atoms: _3  and  _6
REMARK    4  A    between atoms: _6  and  _7
REMARK    5  A    between atoms: _7  and  _8
REMARK    6  A    between atoms: _8  and  _9
REMARK    7  A    between atoms: _18  and  _20
REMARK    8  A    between atoms: _20  and  _21
REMARK    9  A    between atoms: _20  and  _23
REMARK   10  A    between atoms: _23  and  _24
REMARK   11  A    between atoms: _27  and  _29
REMARK   12  A    between atoms: _29  and  _30
REMARK   13  A    between atoms: _29  and  _32
REMARK   14  A    between atoms: _32  and  _33
REMARK   15  A    between atoms: _36  and  _38
REMARK   16  A    between atoms: _38  and  _39
REMARK   17  A    between atoms: _38  and  _41
REMARK   18  A    between atoms: _41  and  _42
REMARK   19  A    between atoms: _45  and  _47
REMARK   20  A    between atoms: _47  and  _48
REMARK   21  A    between atoms: _47  and  _50
REMARK   22  A    between atoms: _50  and  _51
REMARK   23  A    between atoms: _54  and  _56
REMARK   24  A    between atoms: _56  and  _57
REMARK   25  A    between atoms: _59  and  _61
REMARK   26  A    between atoms: _61  and  _62
REMARK   27  A    between atoms: _65  and  _67
REMARK   28  A    between atoms: _67  and  _68
REMARK   29  A    between atoms: _67  and  _70
REMARK   30  A    between atoms: _70  and  _71
REMARK   31  A    between atoms: _74  and  _76
REMARK   32  A    between atoms: _76  and  _77
REMARK   33  A    between atoms: _76  and  _79
REMARK   34  A    between atoms: _79  and  _80
REMARK   35  A    between atoms: _83  and  _85
REMARK   36  A    between atoms: _85  and  _86
REMARK   37  A    between atoms: _85  and  _88
REMARK   38  A    between atoms: _88  and  _89
REMARK   39  A    between atoms: _92  and  _94
REMARK   40  A    between atoms: _94  and  _95
REMARK   41  A    between atoms: _94  and  _97
REMARK   42  A    between atoms: _100  and  _102
REMARK   43  A    between atoms: _102  and  _103
REMARK   44  A    between atoms: _102  and  _105
REMARK   45  A    between atoms: _105  and  _106
REMARK   46  A    between atoms: _109  and  _111
REMARK   47  A    between atoms: _111  and  _112
REMARK   48  A    between atoms: _111  and  _114
REMARK   49  A    between atoms: _114  and  _115
REMARK   50  A    between atoms: _115  and  _116
REMARK   51  A    between atoms: _116  and  _117
REMARK   52  A    between atoms: _117  and  _118
REMARK   53  A    between atoms: _122  and  _124
REMARK   54  A    between atoms: _124  and  _125
REMARK   55  A    between atoms: _124  and  _127
REMARK   56  A    between atoms: _127  and  _128
REMARK   57  A    between atoms: _128  and  _129
REMARK   58  A    between atoms: _131  and  _133
REMARK   59  A    between atoms: _133  and  _134
REMARK   60  A    between atoms: _133  and  _136
REMARK   61  A    between atoms: _136  and  _137
REMARK   62  A    between atoms: _140  and  _142
REMARK   63  A    between atoms: _142  and  _143
REMARK   64  A    between atoms: _145  and  _147
REMARK   65  A    between atoms: _147  and  _148
REMARK   66  A    between atoms: _150  and  _152
REMARK   67  A    between atoms: _152  and  _153
REMARK   68  A    between atoms: _152  and  _155
REMARK   69  A    between atoms: _158  and  _160
REMARK   70  A    between atoms: _160  and  _161
REMARK   71  A    between atoms: _163  and  _165
REMARK   72  A    between atoms: _165  and  _166
REMARK   73  A    between atoms: _168  and  _170
REMARK   74  A    between atoms: _170  and  _171
REMARK   75  A    between atoms: _170  and  _173
REMARK   76  A    between atoms: _173  and  _174
REMARK   77  A    between atoms: _180  and  _182
REMARK   78  A    between atoms: _182  and  _183
REMARK   79  A    between atoms: _182  and  _185
REMARK   80  A    between atoms: _185  and  _186
REMARK   81  A    between atoms: _189  and  _191
REMARK   82  A    between atoms: _191  and  _192
REMARK   83  A    between atoms: _191  and  _194
REMARK   84  A    between atoms: _197  and  _199
REMARK   85  A    between atoms: _199  and  _200
REMARK   86  A    between atoms: _199  and  _202
REMARK   87  A    between atoms: _202  and  _203
REMARK   88  A    between atoms: _207  and  _208
REMARK   89  A    between atoms: _213  and  _215
REMARK   90  A    between atoms: _215  and  _216
REMARK   91  A    between atoms: _215  and  _218
REMARK   92  A    between atoms: _218  and  _219
REMARK   93  A    between atoms: _223  and  _224
REMARK   94  A    between atoms: _229  and  _231
REMARK   95  A    between atoms: _231  and  _232
REMARK   96  A    between atoms: _231  and  _234
REMARK   97  A    between atoms: _237  and  _239
REMARK   98  A    between atoms: _239  and  _240
REMARK   99  A    between atoms: _239  and  _242
REMARK  100  A    between atoms: _242  and  _243
REMARK  101  A    between atoms: _248  and  _250
REMARK  102  A    between atoms: _250  and  _251
REMARK  103  A    between atoms: _250  and  _253
REMARK  104  A    between atoms: _253  and  _254
REMARK  105  A    between atoms: _257  and  _259
REMARK  106  A    between atoms: _259  and  _260
REMARK  107  A    between atoms: _259  and  _262
REMARK  108  A    between atoms: _262  and  _263
REMARK  109  A    between atoms: _266  and  _268
REMARK  110  A    between atoms: _268  and  _269
REMARK  111  A    between atoms: _271  and  _273
REMARK  112  A    between atoms: _273  and  _274
REMARK  113  A    between atoms: _273  and  _276
REMARK  114  A    between atoms: _276  and  _277
REMARK  115  A    between atoms: _277  and  _278
REMARK  116  A    between atoms: _278  and  _279
REMARK  117  A    between atoms: _288  and  _290
REMARK  118  A    between atoms: _290  and  _291
REMARK  119  A    between atoms: _290  and  _293
REMARK  120  A    between atoms: _293  and  _294
REMARK  121  A    between atoms: _299  and  _301
REMARK  122  A    between atoms: _301  and  _302
REMARK  123  A    between atoms: _301  and  _304
REMARK  124  A    between atoms: _304  and  _305
REMARK  125  A    between atoms: _305  and  _306
REMARK  126  A    between atoms: _306  and  _307
REMARK  127  A    between atoms: _316  and  _318
REMARK  128  A    between atoms: _318  and  _319
REMARK  129  A    between atoms: _318  and  _321
REMARK  130  A    between atoms: _321  and  _322
REMARK  131  A    between atoms: _325  and  _327
REMARK  132  A    between atoms: _327  and  _328
REMARK  133  A    between atoms: _327  and  _330
REMARK  134  A    between atoms: _330  and  _331
REMARK  135  A    between atoms: _334  and  _336
REMARK  136  A    between atoms: _336  and  _337
REMARK  137  A    between atoms: _336  and  _339
REMARK  138  A    between atoms: _339  and  _340
REMARK  139  A    between atoms: _343  and  _345
REMARK  140  A    between atoms: _345  and  _346
REMARK  141  A    between atoms: _345  and  _348
REMARK  142  A    between atoms: _348  and  _349
REMARK  143  A    between atoms: _352  and  _354
REMARK  144  A    between atoms: _354  and  _355
REMARK  145  A    between atoms: _357  and  _359
REMARK  146  A    between atoms: _359  and  _360
REMARK  147  A    between atoms: _363  and  _365
REMARK  148  A    between atoms: _365  and  _366
REMARK  149  A    between atoms: _365  and  _368
REMARK  150  A    between atoms: _368  and  _369
REMARK  151  A    between atoms: _372  and  _374
REMARK  152  A    between atoms: _374  and  _375
REMARK  153  A    between atoms: _374  and  _377
REMARK  154  A    between atoms: _377  and  _378
REMARK  155  A    between atoms: _381  and  _383
REMARK  156  A    between atoms: _383  and  _384
REMARK  157  A    between atoms: _383  and  _386
REMARK  158  A    between atoms: _386  and  _387
REMARK  159  A    between atoms: _390  and  _392
REMARK  160  A    between atoms: _392  and  _393
REMARK  161  A    between atoms: _392  and  _395
REMARK  162  A    between atoms: _398  and  _400
REMARK  163  A    between atoms: _400  and  _401
REMARK  164  A    between atoms: _400  and  _403
REMARK  165  A    between atoms: _403  and  _404
REMARK  166  A    between atoms: _407  and  _409
REMARK  167  A    between atoms: _409  and  _410
REMARK  168  A    between atoms: _409  and  _412
REMARK  169  A    between atoms: _412  and  _413
REMARK  170  A    between atoms: _413  and  _414
REMARK  171  A    between atoms: _414  and  _415
REMARK  172  A    between atoms: _415  and  _416
REMARK  173  A    between atoms: _420  and  _422
REMARK  174  A    between atoms: _422  and  _423
REMARK  175  A    between atoms: _422  and  _425
REMARK  176  A    between atoms: _425  and  _426
REMARK  177  A    between atoms: _426  and  _427
REMARK  178  A    between atoms: _429  and  _431
REMARK  179  A    between atoms: _431  and  _432
REMARK  180  A    between atoms: _431  and  _434
REMARK  181  A    between atoms: _434  and  _435
REMARK  182  A    between atoms: _438  and  _440
REMARK  183  A    between atoms: _440  and  _441
REMARK  184  A    between atoms: _443  and  _445
REMARK  185  A    between atoms: _445  and  _446
REMARK  186  A    between atoms: _448  and  _450
REMARK  187  A    between atoms: _450  and  _451
REMARK  188  A    between atoms: _450  and  _453
REMARK  189  A    between atoms: _456  and  _458
REMARK  190  A    between atoms: _458  and  _459
REMARK  191  A    between atoms: _461  and  _463
REMARK  192  A    between atoms: _463  and  _464
REMARK  193  A    between atoms: _466  and  _468
REMARK  194  A    between atoms: _468  and  _469
REMARK  195  A    between atoms: _468  and  _471
REMARK  196  A    between atoms: _471  and  _472
REMARK  197  A    between atoms: _478  and  _480
REMARK  198  A    between atoms: _480  and  _481
REMARK  199  A    between atoms: _480  and  _483
REMARK  200  A    between atoms: _483  and  _484
REMARK  201  A    between atoms: _487  and  _489
REMARK  202  A    between atoms: _489  and  _490
REMARK  203  A    between atoms: _489  and  _492
REMARK  204  A    between atoms: _495  and  _497
REMARK  205  A    between atoms: _497  and  _498
REMARK  206  A    between atoms: _497  and  _500
REMARK  207  A    between atoms: _500  and  _501
REMARK  208  A    between atoms: _504  and  _506
REMARK  209  A    between atoms: _506  and  _507
REMARK  210  A    between atoms: _506  and  _509
REMARK  211  A    between atoms: _509  and  _510
REMARK  212  A    between atoms: _514  and  _515
REMARK  213  A    between atoms: _520  and  _522
REMARK  214  A    between atoms: _522  and  _523
REMARK  215  A    between atoms: _522  and  _525
REMARK  216  A    between atoms: _528  and  _530
REMARK  217  A    between atoms: _530  and  _531
REMARK  218  A    between atoms: _530  and  _533
REMARK  219  A    between atoms: _533  and  _534
REMARK  220  A    between atoms: _539  and  _541
REMARK  221  A    between atoms: _541  and  _542
REMARK  222  A    between atoms: _541  and  _544
REMARK  223  A    between atoms: _544  and  _545
REMARK  224  A    between atoms: _548  and  _550
REMARK  225  A    between atoms: _550  and  _551
REMARK  226  A    between atoms: _550  and  _553
REMARK  227  A    between atoms: _553  and  _554
REMARK  228  A    between atoms: _557  and  _559
REMARK  229  A    between atoms: _559  and  _560
REMARK  230  A    between atoms: _562  and  _564
REMARK  231  A    between atoms: _564  and  _565
REMARK  232  A    between atoms: _564  and  _567
REMARK  233  A    between atoms: _567  and  _568
REMARK  234  A    between atoms: _568  and  _569
REMARK  235  A    between atoms: _569  and  _570
REMARK  236  A    between atoms: _579  and  _581
REMARK  237  A    between atoms: _581  and  _582
REMARK  238  A    between atoms: _581  and  _584
REMARK  239  A    between atoms: _584  and  _585
REMARK                            x       y       z     vdW  Elec       q    Type
REMARK                         _______ _______ _______ _____ _____    ______ ____
ROOT
ATOM      1  O   HOH     1      17.923  20.673  16.646  0.00  0.00    +0.000 OA
ENDROOT
TORSDOF 0
REMARK  Name = ../refined-set-2016/3nu5/3nu5_pocket.pdb
REMARK  239 active torsions:
REMARK  status: ('A' for Active; 'I' for Inactive)
REMARK    1  A    between atoms: _1  and  _3
REMARK    2  A    between atoms: _3  and  _4
REMARK    3  A    between atoms: _3  and  _6
REMARK    4  A    between atoms: _6  and  _7
REMARK    5  A    between atoms: _7  and  _8
REMARK    6  A    between atoms: _8  and  _9
REMARK    7  A    between atoms: _18  and  _20
REMARK    8  A    between atoms: _20  and  _21
REMARK    9  A    between atoms: _20  and  _23
REMARK   10  A    between atoms: _23  and  _24
REMARK   11  A    between atoms: _27  and  _29
REMARK   12  A    between atoms: _29  and  _30
REMARK   13  A    between atoms: _29  and  _32
REMARK   14  A    between atoms: _32  and  _33
REMARK   15  A    between atoms: _36  and  _38
REMARK   16  A    between atoms: _38  and  _39
REMARK   17  A    between atoms: _38  and  _41
REMARK   18  A    between atoms: _41  and  _42
REMARK   19  A    between atoms: _45  and  _47
REMARK   20  A    between atoms: _47  and  _48
REMARK   21  A    between atoms: _47  and  _50
REMARK   22  A    between atoms: _50  and  _51
REMARK   23  A    between atoms: _54  and  _56
REMARK   24  A    between atoms: _56  and  _57
REMARK   25  A    between atoms: _59  and  _61
REMARK   26  A    between atoms: _61  and  _62
REMARK   27  A    between atoms: _65  and  _67
REMARK   28  A    between atoms: _67  and  _68
REMARK   29  A    between atoms: _67  and  _70
REMARK   30  A    between atoms: _70  and  _71
REMARK   31  A    between atoms: _74  and  _76
REMARK   32  A    between atoms: _76  and  _77
REMARK   33  A    between atoms: _76  and  _79
REMARK   34  A    between atoms: _79  and  _80
REMARK   35  A    between atoms: _83  and  _85
REMARK   36  A    between atoms: _85  and  _86
REMARK   37  A    between atoms: _85  and  _88
REMARK   38  A    between atoms: _88  and  _89
REMARK   39  A    between atoms: _92  and  _94
REMARK   40  A    between atoms: _94  and  _95
REMARK   41  A    between atoms: _94  and  _97
REMARK   42  A    between atoms: _100  and  _102
REMARK   43  A    between atoms: _102  and  _103
REMARK   44  A    between atoms: _102  and  _105
REMARK   45  A    between atoms: _105  and  _106
REMARK   46  A    between atoms: _109  and  _111
REMARK   47  A    between atoms: _111  and  _112
REMARK   48  A    between atoms: _111  and  _114
REMARK   49  A    between atoms: _114  and  _115
REMARK   50  A    between atoms: _115  and  _116
REMARK   51  A    between atoms: _116  and  _117
REMARK   52  A    between atoms: _117  and  _118
REMARK   53  A    between atoms: _122  and  _124
REMARK   54  A    between atoms: _124  and  _125
REMARK   55  A    between atoms: _124  and  _127
REMARK   56  A    between atoms: _127  and  _128
REMARK   57  A    between atoms: _128  and  _129
REMARK   58  A    between atoms: _131  and  _133
REMARK   59  A    between atoms: _133  and  _134
REMARK   60  A    between atoms: _133  and  _136
REMARK   61  A    between atoms: _136  and  _137
REMARK   62  A    between atoms: _140  and  _142
REMARK   63  A    between atoms: _142  and  _143
REMARK   64  A    between atoms: _145  and  _147
REMARK   65  A    between atoms: _147  and  _148
REMARK   66  A    between atoms: _150  and  _152
REMARK   67  A    between atoms: _152  and  _153
REMARK   68  A    between atoms: _152  and  _155
REMARK   69  A    between atoms: _158  and  _160
REMARK   70  A    between atoms: _160  and  _161
REMARK   71  A    between atoms: _163  and  _165
REMARK   72  A    between atoms: _165  and  _166
REMARK   73  A    between atoms: _168  and  _170
REMARK   74  A    between atoms: _170  and  _171
REMARK   75  A    between atoms: _170  and  _173
REMARK   76  A    between atoms: _173  and  _174
REMARK   77  A    between atoms: _180  and  _182
REMARK   78  A    between atoms: _182  and  _183
REMARK   79  A    between atoms: _182  and  _185
REMARK   80  A    between atoms: _185  and  _186
REMARK   81  A    between atoms: _189  and  _191
REMARK   82  A    between atoms: _191  and  _192
REMARK   83  A    between atoms: _191  and  _194
REMARK   84  A    between atoms: _197  and  _199
REMARK   85  A    between atoms: _199  and  _200
REMARK   86  A    between atoms: _199  and  _202
REMARK   87  A    between atoms: _202  and  _203
REMARK   88  A    between atoms: _207  and  _208
REMARK   89  A    between atoms: _213  and  _215
REMARK   90  A    between atoms: _215  and  _216
REMARK   91  A    between atoms: _215  and  _218
REMARK   92  A    between atoms: _218  and  _219
REMARK   93  A    between atoms: _223  and  _224
REMARK   94  A    between atoms: _229  and  _231
REMARK   95  A    between atoms: _231  and  _232
REMARK   96  A    between atoms: _231  and  _234
REMARK   97  A    between atoms: _237  and  _239
REMARK   98  A    between atoms: _239  and  _240
REMARK   99  A    between atoms: _239  and  _242
REMARK  100  A    between atoms: _242  and  _243
REMARK  101  A    between atoms: _248  and  _250
REMARK  102  A    between atoms: _250  and  _251
REMARK  103  A    between atoms: _250  and  _253
REMARK  104  A    between atoms: _253  and  _254
REMARK  105  A    between atoms: _257  and  _259
REMARK  106  A    between atoms: _259  and  _260
REMARK  107  A    between atoms: _259  and  _262
REMARK  108  A    between atoms: _262  and  _263
REMARK  109  A    between atoms: _266  and  _268
REMARK  110  A    between atoms: _268  and  _269
REMARK  111  A    between atoms: _271  and  _273
REMARK  112  A    between atoms: _273  and  _274
REMARK  113  A    between atoms: _273  and  _276
REMARK  114  A    between atoms: _276  and  _277
REMARK  115  A    between atoms: _277  and  _278
REMARK  116  A    between atoms: _278  and  _279
REMARK  117  A    between atoms: _288  and  _290
REMARK  118  A    between atoms: _290  and  _291
REMARK  119  A    between atoms: _290  and  _293
REMARK  120  A    between atoms: _293  and  _294
REMARK  121  A    between atoms: _299  and  _301
REMARK  122  A    between atoms: _301  and  _302
REMARK  123  A    between atoms: _301  and  _304
REMARK  124  A    between atoms: _304  and  _305
REMARK  125  A    between atoms: _305  and  _306
REMARK  126  A    between atoms: _306  and  _307
REMARK  127  A    between atoms: _316  and  _318
REMARK  128  A    between atoms: _318  and  _319
REMARK  129  A    between atoms: _318  and  _321
REMARK  130  A    between atoms: _321  and  _322
REMARK  131  A    between atoms: _325  and  _327
REMARK  132  A    between atoms: _327  and  _328
REMARK  133  A    between atoms: _327  and  _330
REMARK  134  A    between atoms: _330  and  _331
REMARK  135  A    between atoms: _334  and  _336
REMARK  136  A    between atoms: _336  and  _337
REMARK  137  A    between atoms: _336  and  _339
REMARK  138  A    between atoms: _339  and  _340
REMARK  139  A    between atoms: _343  and  _345
REMARK  140  A    between atoms: _345  and  _346
REMARK  141  A    between atoms: _345  and  _348
REMARK  142  A    between atoms: _348  and  _349
REMARK  143  A    between atoms: _352  and  _354
REMARK  144  A    between atoms: _354  and  _355
REMARK  145  A    between atoms: _357  and  _359
REMARK  146  A    between atoms: _359  and  _360
REMARK  147  A    between atoms: _363  and  _365
REMARK  148  A    between atoms: _365  and  _366
REMARK  149  A    between atoms: _365  and  _368
REMARK  150  A    between atoms: _368  and  _369
REMARK  151  A    between atoms: _372  and  _374
REMARK  152  A    between atoms: _374  and  _375
REMARK  153  A    between atoms: _374  and  _377
REMARK  154  A    between atoms: _377  and  _378
REMARK  155  A    between atoms: _381  and  _383
REMARK  156  A    between atoms: _383  and  _384
REMARK  157  A    between atoms: _383  and  _386
REMARK  158  A    between atoms: _386  and  _387
REMARK  159  A    between atoms: _390  and  _392
REMARK  160  A    between atoms: _392  and  _393
REMARK  161  A    between atoms: _392  and  _395
REMARK  162  A    between atoms: _398  and  _400
REMARK  163  A    between atoms: _400  and  _401
REMARK  164  A    between atoms: _400  and  _403
REMARK  165  A    between atoms: _403  and  _404
REMARK  166  A    between atoms: _407  and  _409
REMARK  167  A    between atoms: _409  and  _410
REMARK  168  A    between atoms: _409  and  _412
REMARK  169  A    between atoms: _412  and  _413
REMARK  170  A    between atoms: _413  and  _414
REMARK  171  A    between atoms: _414  and  _415
REMARK  172  A    between atoms: _415  and  _416
REMARK  173  A    between atoms: _420  and  _422
REMARK  174  A    between atoms: _422  and  _423
REMARK  175  A    between atoms: _422  and  _425
REMARK  176  A    between atoms: _425  and  _426
REMARK  177  A    between atoms: _426  and  _427
REMARK  178  A    between atoms: _429  and  _431
REMARK  179  A    between atoms: _431  and  _432
REMARK  180  A    between atoms: _431  and  _434
REMARK  181  A    between atoms: _434  and  _435
REMARK  182  A    between atoms: _438  and  _440
REMARK  183  A    between atoms: _440  and  _441
REMARK  184  A    between atoms: _443  and  _445
REMARK  185  A    between atoms: _445  and  _446
REMARK  186  A    between atoms: _448  and  _450
REMARK  187  A    between atoms: _450  and  _451
REMARK  188  A    between atoms: _450  and  _453
REMARK  189  A    between atoms: _456  and  _458
REMARK  190  A    between atoms: _458  and  _459
REMARK  191  A    between atoms: _461  and  _463
REMARK  192  A    between atoms: _463  and  _464
REMARK  193  A    between atoms: _466  and  _468
REMARK  194  A    between atoms: _468  and  _469
REMARK  195  A    between atoms: _468  and  _471
REMARK  196  A    between atoms: _471  and  _472
REMARK  197  A    between atoms: _478  and  _480
REMARK  198  A    between atoms: _480  and  _481
REMARK  199  A    between atoms: _480  and  _483
REMARK  200  A    between atoms: _483  and  _484
REMARK  201  A    between atoms: _487  and  _489
REMARK  202  A    between atoms: _489  and  _490
REMARK  203  A    between atoms: _489  and  _492
REMARK  204  A    between atoms: _495  and  _497
REMARK  205  A    between atoms: _497  and  _498
REMARK  206  A    between atoms: _497  and  _500
REMARK  207  A    between atoms: _500  and  _501
REMARK  208  A    between atoms: _504  and  _506
REMARK  209  A    between atoms: _506  and  _507
REMARK  210  A    between atoms: _506  and  _509
REMARK  211  A    between atoms: _509  and  _510
REMARK  212  A    between atoms: _514  and  _515
REMARK  213  A    between atoms: _520  and  _522
REMARK  214  A    between atoms: _522  and  _523
REMARK  215  A    between atoms: _522  and  _525
REMARK  216  A    between atoms: _528  and  _530
REMARK  217  A    between atoms: _530  and  _531
REMARK  218  A    between atoms: _530  and  _533
REMARK  219  A    between atoms: _533  and  _534
REMARK  220  A    between atoms: _539  and  _541
REMARK  221  A    between atoms: _541  and  _542
REMARK  222  A    between atoms: _541  and  _544
REMARK  223  A    between atoms: _544  and  _545
REMARK  224  A    between atoms: _548  and  _550
REMARK  225  A    between atoms: _550  and  _551
REMARK  226  A    between atoms: _550  and  _553
REMARK  227  A    between atoms: _553  and  _554
REMARK  228  A    between atoms: _557  and  _559
REMARK  229  A    between atoms: _559  and  _560
REMARK  230  A    between atoms: _562  and  _564
REMARK  231  A    between atoms: _564  and  _565
REMARK  232  A    between atoms: _564  and  _567
REMARK  233  A    between atoms: _567  and  _568
REMARK  234  A    between atoms: _568  and  _569
REMARK  235  A    between atoms: _569  and  _570
REMARK  236  A    between atoms: _579  and  _581
REMARK  237  A    between atoms: _581  and  _582
REMARK  238  A    between atoms: _581  and  _584
REMARK  239  A    between atoms: _584  and  _585
REMARK                            x       y       z     vdW  Elec       q    Type
REMARK                         _______ _______ _______ _____ _____    ______ ____
ROOT
ATOM      1  O   HOH     1       7.432  23.740  18.318  0.00  0.00    +0.000 OA
ENDROOT
TORSDOF 0
REMARK  Name = ../refined-set-2016/3nu5/3nu5_pocket.pdb
REMARK  239 active torsions:
REMARK  status: ('A' for Active; 'I' for Inactive)
REMARK    1  A    between atoms: _1  and  _3
REMARK    2  A    between atoms: _3  and  _4
REMARK    3  A    between atoms: _3  and  _6
REMARK    4  A    between atoms: _6  and  _7
REMARK    5  A    between atoms: _7  and  _8
REMARK    6  A    between atoms: _8  and  _9
REMARK    7  A    between atoms: _18  and  _20
REMARK    8  A    between atoms: _20  and  _21
REMARK    9  A    between atoms: _20  and  _23
REMARK   10  A    between atoms: _23  and  _24
REMARK   11  A    between atoms: _27  and  _29
REMARK   12  A    between atoms: _29  and  _30
REMARK   13  A    between atoms: _29  and  _32
REMARK   14  A    between atoms: _32  and  _33
REMARK   15  A    between atoms: _36  and  _38
REMARK   16  A    between atoms: _38  and  _39
REMARK   17  A    between atoms: _38  and  _41
REMARK   18  A    between atoms: _41  and  _42
REMARK   19  A    between atoms: _45  and  _47
REMARK   20  A    between atoms: _47  and  _48
REMARK   21  A    between atoms: _47  and  _50
REMARK   22  A    between atoms: _50  and  _51
REMARK   23  A    between atoms: _54  and  _56
REMARK   24  A    between atoms: _56  and  _57
REMARK   25  A    between atoms: _59  and  _61
REMARK   26  A    between atoms: _61  and  _62
REMARK   27  A    between atoms: _65  and  _67
REMARK   28  A    between atoms: _67  and  _68
REMARK   29  A    between atoms: _67  and  _70
REMARK   30  A    between atoms: _70  and  _71
REMARK   31  A    between atoms: _74  and  _76
REMARK   32  A    between atoms: _76  and  _77
REMARK   33  A    between atoms: _76  and  _79
REMARK   34  A    between atoms: _79  and  _80
REMARK   35  A    between atoms: _83  and  _85
REMARK   36  A    between atoms: _85  and  _86
REMARK   37  A    between atoms: _85  and  _88
REMARK   38  A    between atoms: _88  and  _89
REMARK   39  A    between atoms: _92  and  _94
REMARK   40  A    between atoms: _94  and  _95
REMARK   41  A    between atoms: _94  and  _97
REMARK   42  A    between atoms: _100  and  _102
REMARK   43  A    between atoms: _102  and  _103
REMARK   44  A    between atoms: _102  and  _105
REMARK   45  A    between atoms: _105  and  _106
REMARK   46  A    between atoms: _109  and  _111
REMARK   47  A    between atoms: _111  and  _112
REMARK   48  A    between atoms: _111  and  _114
REMARK   49  A    between atoms: _114  and  _115
REMARK   50  A    between atoms: _115  and  _116
REMARK   51  A    between atoms: _116  and  _117
REMARK   52  A    between atoms: _117  and  _118
REMARK   53  A    between atoms: _122  and  _124
REMARK   54  A    between atoms: _124  and  _125
REMARK   55  A    between atoms: _124  and  _127
REMARK   56  A    between atoms: _127  and  _128
REMARK   57  A    between atoms: _128  and  _129
REMARK   58  A    between atoms: _131  and  _133
REMARK   59  A    between atoms: _133  and  _134
REMARK   60  A    between atoms: _133  and  _136
REMARK   61  A    between atoms: _136  and  _137
REMARK   62  A    between atoms: _140  and  _142
REMARK   63  A    between atoms: _142  and  _143
REMARK   64  A    between atoms: _145  and  _147
REMARK   65  A    between atoms: _147  and  _148
REMARK   66  A    between atoms: _150  and  _152
REMARK   67  A    between atoms: _152  and  _153
REMARK   68  A    between atoms: _152  and  _155
REMARK   69  A    between atoms: _158  and  _160
REMARK   70  A    between atoms: _160  and  _161
REMARK   71  A    between atoms: _163  and  _165
REMARK   72  A    between atoms: _165  and  _166
REMARK   73  A    between atoms: _168  and  _170
REMARK   74  A    between atoms: _170  and  _171
REMARK   75  A    between atoms: _170  and  _173
REMARK   76  A    between atoms: _173  and  _174
REMARK   77  A    between atoms: _180  and  _182
REMARK   78  A    between atoms: _182  and  _183
REMARK   79  A    between atoms: _182  and  _185
REMARK   80  A    between atoms: _185  and  _186
REMARK   81  A    between atoms: _189  and  _191
REMARK   82  A    between atoms: _191  and  _192
REMARK   83  A    between atoms: _191  and  _194
REMARK   84  A    between atoms: _197  and  _199
REMARK   85  A    between atoms: _199  and  _200
REMARK   86  A    between atoms: _199  and  _202
REMARK   87  A    between atoms: _202  and  _203
REMARK   88  A    between atoms: _207  and  _208
REMARK   89  A    between atoms: _213  and  _215
REMARK   90  A    between atoms: _215  and  _216
REMARK   91  A    between atoms: _215  and  _218
REMARK   92  A    between atoms: _218  and  _219
REMARK   93  A    between atoms: _223  and  _224
REMARK   94  A    between atoms: _229  and  _231
REMARK   95  A    between atoms: _231  and  _232
REMARK   96  A    between atoms: _231  and  _234
REMARK   97  A    between atoms: _237  and  _239
REMARK   98  A    between atoms: _239  and  _240
REMARK   99  A    between atoms: _239  and  _242
REMARK  100  A    between atoms: _242  and  _243
REMARK  101  A    between atoms: _248  and  _250
REMARK  102  A    between atoms: _250  and  _251
REMARK  103  A    between atoms: _250  and  _253
REMARK  104  A    between atoms: _253  and  _254
REMARK  105  A    between atoms: _257  and  _259
REMARK  106  A    between atoms: _259  and  _260
REMARK  107  A    between atoms: _259  and  _262
REMARK  108  A    between atoms: _262  and  _263
REMARK  109  A    between atoms: _266  and  _268
REMARK  110  A    between atoms: _268  and  _269
REMARK  111  A    between atoms: _271  and  _273
REMARK  112  A    between atoms: _273  and  _274
REMARK  113  A    between atoms: _273  and  _276
REMARK  114  A    between atoms: _276  and  _277
REMARK  115  A    between atoms: _277  and  _278
REMARK  116  A    between atoms: _278  and  _279
REMARK  117  A    between atoms: _288  and  _290
REMARK  118  A    between atoms: _290  and  _291
REMARK  119  A    between atoms: _290  and  _293
REMARK  120  A    between atoms: _293  and  _294
REMARK  121  A    between atoms: _299  and  _301
REMARK  122  A    between atoms: _301  and  _302
REMARK  123  A    between atoms: _301  and  _304
REMARK  124  A    between atoms: _304  and  _305
REMARK  125  A    between atoms: _305  and  _306
REMARK  126  A    between atoms: _306  and  _307
REMARK  127  A    between atoms: _316  and  _318
REMARK  128  A    between atoms: _318  and  _319
REMARK  129  A    between atoms: _318  and  _321
REMARK  130  A    between atoms: _321  and  _322
REMARK  131  A    between atoms: _325  and  _327
REMARK  132  A    between atoms: _327  and  _328
REMARK  133  A    between atoms: _327  and  _330
REMARK  134  A    between atoms: _330  and  _331
REMARK  135  A    between atoms: _334  and  _336
REMARK  136  A    between atoms: _336  and  _337
REMARK  137  A    between atoms: _336  and  _339
REMARK  138  A    between atoms: _339  and  _340
REMARK  139  A    between atoms: _343  and  _345
REMARK  140  A    between atoms: _345  and  _346
REMARK  141  A    between atoms: _345  and  _348
REMARK  142  A    between atoms: _348  and  _349
REMARK  143  A    between atoms: _352  and  _354
REMARK  144  A    between atoms: _354  and  _355
REMARK  145  A    between atoms: _357  and  _359
REMARK  146  A    between atoms: _359  and  _360
REMARK  147  A    between atoms: _363  and  _365
REMARK  148  A    between atoms: _365  and  _366
REMARK  149  A    between atoms: _365  and  _368
REMARK  150  A    between atoms: _368  and  _369
REMARK  151  A    between atoms: _372  and  _374
REMARK  152  A    between atoms: _374  and  _375
REMARK  153  A    between atoms: _374  and  _377
REMARK  154  A    between atoms: _377  and  _378
REMARK  155  A    between atoms: _381  and  _383
REMARK  156  A    between atoms: _383  and  _384
REMARK  157  A    between atoms: _383  and  _386
REMARK  158  A    between atoms: _386  and  _387
REMARK  159  A    between atoms: _390  and  _392
REMARK  160  A    between atoms: _392  and  _393
REMARK  161  A    between atoms: _392  and  _395
REMARK  162  A    between atoms: _398  and  _400
REMARK  163  A    between atoms: _400  and  _401
REMARK  164  A    between atoms: _400  and  _403
REMARK  165  A    between atoms: _403  and  _404
REMARK  166  A    between atoms: _407  and  _409
REMARK  167  A    between atoms: _409  and  _410
REMARK  168  A    between atoms: _409  and  _412
REMARK  169  A    between atoms: _412  and  _413
REMARK  170  A    between atoms: _413  and  _414
REMARK  171  A    between atoms: _414  and  _415
REMARK  172  A    between atoms: _415  and  _416
REMARK  173  A    between atoms: _420  and  _422
REMARK  174  A    between atoms: _422  and  _423
REMARK  175  A    between atoms: _422  and  _425
REMARK  176  A    between atoms: _425  and  _426
REMARK  177  A    between atoms: _426  and  _427
REMARK  178  A    between atoms: _429  and  _431
REMARK  179  A    between atoms: _431  and  _432
REMARK  180  A    between atoms: _431  and  _434
REMARK  181  A    between atoms: _434  and  _435
REMARK  182  A    between atoms: _438  and  _440
REMARK  183  A    between atoms: _440  and  _441
REMARK  184  A    between atoms: _443  and  _445
REMARK  185  A    between atoms: _445  and  _446
REMARK  186  A    between atoms: _448  and  _450
REMARK  187  A    between atoms: _450  and  _451
REMARK  188  A    between atoms: _450  and  _453
REMARK  189  A    between atoms: _456  and  _458
REMARK  190  A    between atoms: _458  and  _459
REMARK  191  A    between atoms: _461  and  _463
REMARK  192  A    between atoms: _463  and  _464
REMARK  193  A    between atoms: _466  and  _468
REMARK  194  A    between atoms: _468  and  _469
REMARK  195  A    between atoms: _468  and  _471
REMARK  196  A    between atoms: _471  and  _472
REMARK  197  A    between atoms: _478  and  _480
REMARK  198  A    between atoms: _480  and  _481
REMARK  199  A    between atoms: _480  and  _483
REMARK  200  A    between atoms: _483  and  _484
REMARK  201  A    between atoms: _487  and  _489
REMARK  202  A    between atoms: _489  and  _490
REMARK  203  A    between atoms: _489  and  _492
REMARK  204  A    between atoms: _495  and  _497
REMARK  205  A    between atoms: _497  and  _498
REMARK  206  A    between atoms: _497  and  _500
REMARK  207  A    between atoms: _500  and  _501
REMARK  208  A    between atoms: _504  and  _506
REMARK  209  A    between atoms: _506  and  _507
REMARK  210  A    between atoms: _506  and  _509
REMARK  211  A    between atoms: _509  and  _510
REMARK  212  A    between atoms: _514  and  _515
REMARK  213  A    between atoms: _520  and  _522
REMARK  214  A    between atoms: _522  and  _523
REMARK  215  A    between atoms: _522  and  _525
REMARK  216  A    between atoms: _528  and  _530
REMARK  217  A    between atoms: _530  and  _531
REMARK  218  A    between atoms: _530  and  _533
REMARK  219  A    between atoms: _533  and  _534
REMARK  220  A    between atoms: _539  and  _541
REMARK  221  A    between atoms: _541  and  _542
REMARK  222  A    between atoms: _541  and  _544
REMARK  223  A    between atoms: _544  and  _545
REMARK  224  A    between atoms: _548  and  _550
REMARK  225  A    between atoms: _550  and  _551
REMARK  226  A    between atoms: _550  and  _553
REMARK  227  A    between atoms: _553  and  _554
REMARK  228  A    between atoms: _557  and  _559
REMARK  229  A    between atoms: _559  and  _560
REMARK  230  A    between atoms: _562  and  _564
REMARK  231  A    between atoms: _564  and  _565
REMARK  232  A    between atoms: _564  and  _567
REMARK  233  A    between atoms: _567  and  _568
REMARK  234  A    between atoms: _568  and  _569
REMARK  235  A    between atoms: _569  and  _570
REMARK  236  A    between atoms: _579  and  _581
REMARK  237  A    between atoms: _581  and  _582
REMARK  238  A    between atoms: _581  and  _584
REMARK  239  A    between atoms: _584  and  _585
REMARK                            x       y       z     vdW  Elec       q    Type
REMARK                         _______ _______ _______ _____ _____    ______ ____
ROOT
ATOM      1  O   HOH     1       9.143  16.081  26.750  0.00  0.00    +0.000 OA
ENDROOT
TORSDOF 0
REMARK  Name = ../refined-set-2016/3nu5/3nu5_pocket.pdb
REMARK  239 active torsions:
REMARK  status: ('A' for Active; 'I' for Inactive)
REMARK    1  A    between atoms: _1  and  _3
REMARK    2  A    between atoms: _3  and  _4
REMARK    3  A    between atoms: _3  and  _6
REMARK    4  A    between atoms: _6  and  _7
REMARK    5  A    between atoms: _7  and  _8
REMARK    6  A    between atoms: _8  and  _9
REMARK    7  A    between atoms: _18  and  _20
REMARK    8  A    between atoms: _20  and  _21
REMARK    9  A    between atoms: _20  and  _23
REMARK   10  A    between atoms: _23  and  _24
REMARK   11  A    between atoms: _27  and  _29
REMARK   12  A    between atoms: _29  and  _30
REMARK   13  A    between atoms: _29  and  _32
REMARK   14  A    between atoms: _32  and  _33
REMARK   15  A    between atoms: _36  and  _38
REMARK   16  A    between atoms: _38  and  _39
REMARK   17  A    between atoms: _38  and  _41
REMARK   18  A    between atoms: _41  and  _42
REMARK   19  A    between atoms: _45  and  _47
REMARK   20  A    between atoms: _47  and  _48
REMARK   21  A    between atoms: _47  and  _50
REMARK   22  A    between atoms: _50  and  _51
REMARK   23  A    between atoms: _54  and  _56
REMARK   24  A    between atoms: _56  and  _57
REMARK   25  A    between atoms: _59  and  _61
REMARK   26  A    between atoms: _61  and  _62
REMARK   27  A    between atoms: _65  and  _67
REMARK   28  A    between atoms: _67  and  _68
REMARK   29  A    between atoms: _67  and  _70
REMARK   30  A    between atoms: _70  and  _71
REMARK   31  A    between atoms: _74  and  _76
REMARK   32  A    between atoms: _76  and  _77
REMARK   33  A    between atoms: _76  and  _79
REMARK   34  A    between atoms: _79  and  _80
REMARK   35  A    between atoms: _83  and  _85
REMARK   36  A    between atoms: _85  and  _86
REMARK   37  A    between atoms: _85  and  _88
REMARK   38  A    between atoms: _88  and  _89
REMARK   39  A    between atoms: _92  and  _94
REMARK   40  A    between atoms: _94  and  _95
REMARK   41  A    between atoms: _94  and  _97
REMARK   42  A    between atoms: _100  and  _102
REMARK   43  A    between atoms: _102  and  _103
REMARK   44  A    between atoms: _102  and  _105
REMARK   45  A    between atoms: _105  and  _106
REMARK   46  A    between atoms: _109  and  _111
REMARK   47  A    between atoms: _111  and  _112
REMARK   48  A    between atoms: _111  and  _114
REMARK   49  A    between atoms: _114  and  _115
REMARK   50  A    between atoms: _115  and  _116
REMARK   51  A    between atoms: _116  and  _117
REMARK   52  A    between atoms: _117  and  _118
REMARK   53  A    between atoms: _122  and  _124
REMARK   54  A    between atoms: _124  and  _125
REMARK   55  A    between atoms: _124  and  _127
REMARK   56  A    between atoms: _127  and  _128
REMARK   57  A    between atoms: _128  and  _129
REMARK   58  A    between atoms: _131  and  _133
REMARK   59  A    between atoms: _133  and  _134
REMARK   60  A    between atoms: _133  and  _136
REMARK   61  A    between atoms: _136  and  _137
REMARK   62  A    between atoms: _140  and  _142
REMARK   63  A    between atoms: _142  and  _143
REMARK   64  A    between atoms: _145  and  _147
REMARK   65  A    between atoms: _147  and  _148
REMARK   66  A    between atoms: _150  and  _152
REMARK   67  A    between atoms: _152  and  _153
REMARK   68  A    between atoms: _152  and  _155
REMARK   69  A    between atoms: _158  and  _160
REMARK   70  A    between atoms: _160  and  _161
REMARK   71  A    between atoms: _163  and  _165
REMARK   72  A    between atoms: _165  and  _166
REMARK   73  A    between atoms: _168  and  _170
REMARK   74  A    between atoms: _170  and  _171
REMARK   75  A    between atoms: _170  and  _173
REMARK   76  A    between atoms: _173  and  _174
REMARK   77  A    between atoms: _180  and  _182
REMARK   78  A    between atoms: _182  and  _183
REMARK   79  A    between atoms: _182  and  _185
REMARK   80  A    between atoms: _185  and  _186
REMARK   81  A    between atoms: _189  and  _191
REMARK   82  A    between atoms: _191  and  _192
REMARK   83  A    between atoms: _191  and  _194
REMARK   84  A    between atoms: _197  and  _199
REMARK   85  A    between atoms: _199  and  _200
REMARK   86  A    between atoms: _199  and  _202
REMARK   87  A    between atoms: _202  and  _203
REMARK   88  A    between atoms: _207  and  _208
REMARK   89  A    between atoms: _213  and  _215
REMARK   90  A    between atoms: _215  and  _216
REMARK   91  A    between atoms: _215  and  _218
REMARK   92  A    between atoms: _218  and  _219
REMARK   93  A    between atoms: _223  and  _224
REMARK   94  A    between atoms: _229  and  _231
REMARK   95  A    between atoms: _231  and  _232
REMARK   96  A    between atoms: _231  and  _234
REMARK   97  A    between atoms: _237  and  _239
REMARK   98  A    between atoms: _239  and  _240
REMARK   99  A    between atoms: _239  and  _242
REMARK  100  A    between atoms: _242  and  _243
REMARK  101  A    between atoms: _248  and  _250
REMARK  102  A    between atoms: _250  and  _251
REMARK  103  A    between atoms: _250  and  _253
REMARK  104  A    between atoms: _253  and  _254
REMARK  105  A    between atoms: _257  and  _259
REMARK  106  A    between atoms: _259  and  _260
REMARK  107  A    between atoms: _259  and  _262
REMARK  108  A    between atoms: _262  and  _263
REMARK  109  A    between atoms: _266  and  _268
REMARK  110  A    between atoms: _268  and  _269
REMARK  111  A    between atoms: _271  and  _273
REMARK  112  A    between atoms: _273  and  _274
REMARK  113  A    between atoms: _273  and  _276
REMARK  114  A    between atoms: _276  and  _277
REMARK  115  A    between atoms: _277  and  _278
REMARK  116  A    between atoms: _278  and  _279
REMARK  117  A    between atoms: _288  and  _290
REMARK  118  A    between atoms: _290  and  _291
REMARK  119  A    between atoms: _290  and  _293
REMARK  120  A    between atoms: _293  and  _294
REMARK  121  A    between atoms: _299  and  _301
REMARK  122  A    between atoms: _301  and  _302
REMARK  123  A    between atoms: _301  and  _304
REMARK  124  A    between atoms: _304  and  _305
REMARK  125  A    between atoms: _305  and  _306
REMARK  126  A    between atoms: _306  and  _307
REMARK  127  A    between atoms: _316  and  _318
REMARK  128  A    between atoms: _318  and  _319
REMARK  129  A    between atoms: _318  and  _321
REMARK  130  A    between atoms: _321  and  _322
REMARK  131  A    between atoms: _325  and  _327
REMARK  132  A    between atoms: _327  and  _328
REMARK  133  A    between atoms: _327  and  _330
REMARK  134  A    between atoms: _330  and  _331
REMARK  135  A    between atoms: _334  and  _336
REMARK  136  A    between atoms: _336  and  _337
REMARK  137  A    between atoms: _336  and  _339
REMARK  138  A    between atoms: _339  and  _340
REMARK  139  A    between atoms: _343  and  _345
REMARK  140  A    between atoms: _345  and  _346
REMARK  141  A    between atoms: _345  and  _348
REMARK  142  A    between atoms: _348  and  _349
REMARK  143  A    between atoms: _352  and  _354
REMARK  144  A    between atoms: _354  and  _355
REMARK  145  A    between atoms: _357  and  _359
REMARK  146  A    between atoms: _359  and  _360
REMARK  147  A    between atoms: _363  and  _365
REMARK  148  A    between atoms: _365  and  _366
REMARK  149  A    between atoms: _365  and  _368
REMARK  150  A    between atoms: _368  and  _369
REMARK  151  A    between atoms: _372  and  _374
REMARK  152  A    between atoms: _374  and  _375
REMARK  153  A    between atoms: _374  and  _377
REMARK  154  A    between atoms: _377  and  _378
REMARK  155  A    between atoms: _381  and  _383
REMARK  156  A    between atoms: _383  and  _384
REMARK  157  A    between atoms: _383  and  _386
REMARK  158  A    between atoms: _386  and  _387
REMARK  159  A    between atoms: _390  and  _392
REMARK  160  A    between atoms: _392  and  _393
REMARK  161  A    between atoms: _392  and  _395
REMARK  162  A    between atoms: _398  and  _400
REMARK  163  A    between atoms: _400  and  _401
REMARK  164  A    between atoms: _400  and  _403
REMARK  165  A    between atoms: _403  and  _404
REMARK  166  A    between atoms: _407  and  _409
REMARK  167  A    between atoms: _409  and  _410
REMARK  168  A    between atoms: _409  and  _412
REMARK  169  A    between atoms: _412  and  _413
REMARK  170  A    between atoms: _413  and  _414
REMARK  171  A    between atoms: _414  and  _415
REMARK  172  A    between atoms: _415  and  _416
REMARK  173  A    between atoms: _420  and  _422
REMARK  174  A    between atoms: _422  and  _423
REMARK  175  A    between atoms: _422  and  _425
REMARK  176  A    between atoms: _425  and  _426
REMARK  177  A    between atoms: _426  and  _427
REMARK  178  A    between atoms: _429  and  _431
REMARK  179  A    between atoms: _431  and  _432
REMARK  180  A    between atoms: _431  and  _434
REMARK  181  A    between atoms: _434  and  _435
REMARK  182  A    between atoms: _438  and  _440
REMARK  183  A    between atoms: _440  and  _441
REMARK  184  A    between atoms: _443  and  _445
REMARK  185  A    between atoms: _445  and  _446
REMARK  186  A    between atoms: _448  and  _450
REMARK  187  A    between atoms: _450  and  _451
REMARK  188  A    between atoms: _450  and  _453
REMARK  189  A    between atoms: _456  and  _458
REMARK  190  A    between atoms: _458  and  _459
REMARK  191  A    between atoms: _461  and  _463
REMARK  192  A    between atoms: _463  and  _464
REMARK  193  A    between atoms: _466  and  _468
REMARK  194  A    between atoms: _468  and  _469
REMARK  195  A    between atoms: _468  and  _471
REMARK  196  A    between atoms: _471  and  _472
REMARK  197  A    between atoms: _478  and  _480
REMARK  198  A    between atoms: _480  and  _481
REMARK  199  A    between atoms: _480  and  _483
REMARK  200  A    between atoms: _483  and  _484
REMARK  201  A    between atoms: _487  and  _489
REMARK  202  A    between atoms: _489  and  _490
REMARK  203  A    between atoms: _489  and  _492
REMARK  204  A    between atoms: _495  and  _497
REMARK  205  A    between atoms: _497  and  _498
REMARK  206  A    between atoms: _497  and  _500
REMARK  207  A    between atoms: _500  and  _501
REMARK  208  A    between atoms: _504  and  _506
REMARK  209  A    between atoms: _506  and  _507
REMARK  210  A    between atoms: _506  and  _509
REMARK  211  A    between atoms: _509  and  _510
REMARK  212  A    between atoms: _514  and  _515
REMARK  213  A    between atoms: _520  and  _522
REMARK  214  A    between atoms: _522  and  _523
REMARK  215  A    between atoms: _522  and  _525
REMARK  216  A    between atoms: _528  and  _530
REMARK  217  A    between atoms: _530  and  _531
REMARK  218  A    between atoms: _530  and  _533
REMARK  219  A    between atoms: _533  and  _534
REMARK  220  A    between atoms: _539  and  _541
REMARK  221  A    between atoms: _541  and  _542
REMARK  222  A    between atoms: _541  and  _544
REMARK  223  A    between atoms: _544  and  _545
REMARK  224  A    between atoms: _548  and  _550
REMARK  225  A    between atoms: _550  and  _551
REMARK  226  A    between atoms: _550  and  _553
REMARK  227  A    between atoms: _553  and  _554
REMARK  228  A    between atoms: _557  and  _559
REMARK  229  A    between atoms: _559  and  _560
REMARK  230  A    between atoms: _562  and  _564
REMARK  231  A    between atoms: _564  and  _565
REMARK  232  A    between atoms: _564  and  _567
REMARK  233  A    between atoms: _567  and  _568
REMARK  234  A    between atoms: _568  and  _569
REMARK  235  A    between atoms: _569  and  _570
REMARK  236  A    between atoms: _579  and  _581
REMARK  237  A    between atoms: _581  and  _582
REMARK  238  A    between atoms: _581  and  _584
REMARK  239  A    between atoms: _584  and  _585
REMARK                            x       y       z     vdW  Elec       q    Type
REMARK                         _______ _______ _______ _____ _____    ______ ____
ROOT
ATOM      1  O   HOH     1      10.117  20.108  17.629  0.00  0.00    +0.000 OA
ENDROOT
TORSDOF 0
REMARK  Name = ../refined-set-2016/3nu5/3nu5_pocket.pdb
REMARK  239 active torsions:
REMARK  status: ('A' for Active; 'I' for Inactive)
REMARK    1  A    between atoms: _1  and  _3
REMARK    2  A    between atoms: _3  and  _4
REMARK    3  A    between atoms: _3  and  _6
REMARK    4  A    between atoms: _6  and  _7
REMARK    5  A    between atoms: _7  and  _8
REMARK    6  A    between atoms: _8  and  _9
REMARK    7  A    between atoms: _18  and  _20
REMARK    8  A    between atoms: _20  and  _21
REMARK    9  A    between atoms: _20  and  _23
REMARK   10  A    between atoms: _23  and  _24
REMARK   11  A    between atoms: _27  and  _29
REMARK   12  A    between atoms: _29  and  _30
REMARK   13  A    between atoms: _29  and  _32
REMARK   14  A    between atoms: _32  and  _33
REMARK   15  A    between atoms: _36  and  _38
REMARK   16  A    between atoms: _38  and  _39
REMARK   17  A    between atoms: _38  and  _41
REMARK   18  A    between atoms: _41  and  _42
REMARK   19  A    between atoms: _45  and  _47
REMARK   20  A    between atoms: _47  and  _48
REMARK   21  A    between atoms: _47  and  _50
REMARK   22  A    between atoms: _50  and  _51
REMARK   23  A    between atoms: _54  and  _56
REMARK   24  A    between atoms: _56  and  _57
REMARK   25  A    between atoms: _59  and  _61
REMARK   26  A    between atoms: _61  and  _62
REMARK   27  A    between atoms: _65  and  _67
REMARK   28  A    between atoms: _67  and  _68
REMARK   29  A    between atoms: _67  and  _70
REMARK   30  A    between atoms: _70  and  _71
REMARK   31  A    between atoms: _74  and  _76
REMARK   32  A    between atoms: _76  and  _77
REMARK   33  A    between atoms: _76  and  _79
REMARK   34  A    between atoms: _79  and  _80
REMARK   35  A    between atoms: _83  and  _85
REMARK   36  A    between atoms: _85  and  _86
REMARK   37  A    between atoms: _85  and  _88
REMARK   38  A    between atoms: _88  and  _89
REMARK   39  A    between atoms: _92  and  _94
REMARK   40  A    between atoms: _94  and  _95
REMARK   41  A    between atoms: _94  and  _97
REMARK   42  A    between atoms: _100  and  _102
REMARK   43  A    between atoms: _102  and  _103
REMARK   44  A    between atoms: _102  and  _105
REMARK   45  A    between atoms: _105  and  _106
REMARK   46  A    between atoms: _109  and  _111
REMARK   47  A    between atoms: _111  and  _112
REMARK   48  A    between atoms: _111  and  _114
REMARK   49  A    between atoms: _114  and  _115
REMARK   50  A    between atoms: _115  and  _116
REMARK   51  A    between atoms: _116  and  _117
REMARK   52  A    between atoms: _117  and  _118
REMARK   53  A    between atoms: _122  and  _124
REMARK   54  A    between atoms: _124  and  _125
REMARK   55  A    between atoms: _124  and  _127
REMARK   56  A    between atoms: _127  and  _128
REMARK   57  A    between atoms: _128  and  _129
REMARK   58  A    between atoms: _131  and  _133
REMARK   59  A    between atoms: _133  and  _134
REMARK   60  A    between atoms: _133  and  _136
REMARK   61  A    between atoms: _136  and  _137
REMARK   62  A    between atoms: _140  and  _142
REMARK   63  A    between atoms: _142  and  _143
REMARK   64  A    between atoms: _145  and  _147
REMARK   65  A    between atoms: _147  and  _148
REMARK   66  A    between atoms: _150  and  _152
REMARK   67  A    between atoms: _152  and  _153
REMARK   68  A    between atoms: _152  and  _155
REMARK   69  A    between atoms: _158  and  _160
REMARK   70  A    between atoms: _160  and  _161
REMARK   71  A    between atoms: _163  and  _165
REMARK   72  A    between atoms: _165  and  _166
REMARK   73  A    between atoms: _168  and  _170
REMARK   74  A    between atoms: _170  and  _171
REMARK   75  A    between atoms: _170  and  _173
REMARK   76  A    between atoms: _173  and  _174
REMARK   77  A    between atoms: _180  and  _182
REMARK   78  A    between atoms: _182  and  _183
REMARK   79  A    between atoms: _182  and  _185
REMARK   80  A    between atoms: _185  and  _186
REMARK   81  A    between atoms: _189  and  _191
REMARK   82  A    between atoms: _191  and  _192
REMARK   83  A    between atoms: _191  and  _194
REMARK   84  A    between atoms: _197  and  _199
REMARK   85  A    between atoms: _199  and  _200
REMARK   86  A    between atoms: _199  and  _202
REMARK   87  A    between atoms: _202  and  _203
REMARK   88  A    between atoms: _207  and  _208
REMARK   89  A    between atoms: _213  and  _215
REMARK   90  A    between atoms: _215  and  _216
REMARK   91  A    between atoms: _215  and  _218
REMARK   92  A    between atoms: _218  and  _219
REMARK   93  A    between atoms: _223  and  _224
REMARK   94  A    between atoms: _229  and  _231
REMARK   95  A    between atoms: _231  and  _232
REMARK   96  A    between atoms: _231  and  _234
REMARK   97  A    between atoms: _237  and  _239
REMARK   98  A    between atoms: _239  and  _240
REMARK   99  A    between atoms: _239  and  _242
REMARK  100  A    between atoms: _242  and  _243
REMARK  101  A    between atoms: _248  and  _250
REMARK  102  A    between atoms: _250  and  _251
REMARK  103  A    between atoms: _250  and  _253
REMARK  104  A    between atoms: _253  and  _254
REMARK  105  A    between atoms: _257  and  _259
REMARK  106  A    between atoms: _259  and  _260
REMARK  107  A    between atoms: _259  and  _262
REMARK  108  A    between atoms: _262  and  _263
REMARK  109  A    between atoms: _266  and  _268
REMARK  110  A    between atoms: _268  and  _269
REMARK  111  A    between atoms: _271  and  _273
REMARK  112  A    between atoms: _273  and  _274
REMARK  113  A    between atoms: _273  and  _276
REMARK  114  A    between atoms: _276  and  _277
REMARK  115  A    between atoms: _277  and  _278
REMARK  116  A    between atoms: _278  and  _279
REMARK  117  A    between atoms: _288  and  _290
REMARK  118  A    between atoms: _290  and  _291
REMARK  119  A    between atoms: _290  and  _293
REMARK  120  A    between atoms: _293  and  _294
REMARK  121  A    between atoms: _299  and  _301
REMARK  122  A    between atoms: _301  and  _302
REMARK  123  A    between atoms: _301  and  _304
REMARK  124  A    between atoms: _304  and  _305
REMARK  125  A    between atoms: _305  and  _306
REMARK  126  A    between atoms: _306  and  _307
REMARK  127  A    between atoms: _316  and  _318
REMARK  128  A    between atoms: _318  and  _319
REMARK  129  A    between atoms: _318  and  _321
REMARK  130  A    between atoms: _321  and  _322
REMARK  131  A    between atoms: _325  and  _327
REMARK  132  A    between atoms: _327  and  _328
REMARK  133  A    between atoms: _327  and  _330
REMARK  134  A    between atoms: _330  and  _331
REMARK  135  A    between atoms: _334  and  _336
REMARK  136  A    between atoms: _336  and  _337
REMARK  137  A    between atoms: _336  and  _339
REMARK  138  A    between atoms: _339  and  _340
REMARK  139  A    between atoms: _343  and  _345
REMARK  140  A    between atoms: _345  and  _346
REMARK  141  A    between atoms: _345  and  _348
REMARK  142  A    between atoms: _348  and  _349
REMARK  143  A    between atoms: _352  and  _354
REMARK  144  A    between atoms: _354  and  _355
REMARK  145  A    between atoms: _357  and  _359
REMARK  146  A    between atoms: _359  and  _360
REMARK  147  A    between atoms: _363  and  _365
REMARK  148  A    between atoms: _365  and  _366
REMARK  149  A    between atoms: _365  and  _368
REMARK  150  A    between atoms: _368  and  _369
REMARK  151  A    between atoms: _372  and  _374
REMARK  152  A    between atoms: _374  and  _375
REMARK  153  A    between atoms: _374  and  _377
REMARK  154  A    between atoms: _377  and  _378
REMARK  155  A    between atoms: _381  and  _383
REMARK  156  A    between atoms: _383  and  _384
REMARK  157  A    between atoms: _383  and  _386
REMARK  158  A    between atoms: _386  and  _387
REMARK  159  A    between atoms: _390  and  _392
REMARK  160  A    between atoms: _392  and  _393
REMARK  161  A    between atoms: _392  and  _395
REMARK  162  A    between atoms: _398  and  _400
REMARK  163  A    between atoms: _400  and  _401
REMARK  164  A    between atoms: _400  and  _403
REMARK  165  A    between atoms: _403  and  _404
REMARK  166  A    between atoms: _407  and  _409
REMARK  167  A    between atoms: _409  and  _410
REMARK  168  A    between atoms: _409  and  _412
REMARK  169  A    between atoms: _412  and  _413
REMARK  170  A    between atoms: _413  and  _414
REMARK  171  A    between atoms: _414  and  _415
REMARK  172  A    between atoms: _415  and  _416
REMARK  173  A    between atoms: _420  and  _422
REMARK  174  A    between atoms: _422  and  _423
REMARK  175  A    between atoms: _422  and  _425
REMARK  176  A    between atoms: _425  and  _426
REMARK  177  A    between atoms: _426  and  _427
REMARK  178  A    between atoms: _429  and  _431
REMARK  179  A    between atoms: _431  and  _432
REMARK  180  A    between atoms: _431  and  _434
REMARK  181  A    between atoms: _434  and  _435
REMARK  182  A    between atoms: _438  and  _440
REMARK  183  A    between atoms: _440  and  _441
REMARK  184  A    between atoms: _443  and  _445
REMARK  185  A    between atoms: _445  and  _446
REMARK  186  A    between atoms: _448  and  _450
REMARK  187  A    between atoms: _450  and  _451
REMARK  188  A    between atoms: _450  and  _453
REMARK  189  A    between atoms: _456  and  _458
REMARK  190  A    between atoms: _458  and  _459
REMARK  191  A    between atoms: _461  and  _463
REMARK  192  A    between atoms: _463  and  _464
REMARK  193  A    between atoms: _466  and  _468
REMARK  194  A    between atoms: _468  and  _469
REMARK  195  A    between atoms: _468  and  _471
REMARK  196  A    between atoms: _471  and  _472
REMARK  197  A    between atoms: _478  and  _480
REMARK  198  A    between atoms: _480  and  _481
REMARK  199  A    between atoms: _480  and  _483
REMARK  200  A    between atoms: _483  and  _484
REMARK  201  A    between atoms: _487  and  _489
REMARK  202  A    between atoms: _489  and  _490
REMARK  203  A    between atoms: _489  and  _492
REMARK  204  A    between atoms: _495  and  _497
REMARK  205  A    between atoms: _497  and  _498
REMARK  206  A    between atoms: _497  and  _500
REMARK  207  A    between atoms: _500  and  _501
REMARK  208  A    between atoms: _504  and  _506
REMARK  209  A    between atoms: _506  and  _507
REMARK  210  A    between atoms: _506  and  _509
REMARK  211  A    between atoms: _509  and  _510
REMARK  212  A    between atoms: _514  and  _515
REMARK  213  A    between atoms: _520  and  _522
REMARK  214  A    between atoms: _522  and  _523
REMARK  215  A    between atoms: _522  and  _525
REMARK  216  A    between atoms: _528  and  _530
REMARK  217  A    between atoms: _530  and  _531
REMARK  218  A    between atoms: _530  and  _533
REMARK  219  A    between atoms: _533  and  _534
REMARK  220  A    between atoms: _539  and  _541
REMARK  221  A    between atoms: _541  and  _542
REMARK  222  A    between atoms: _541  and  _544
REMARK  223  A    between atoms: _544  and  _545
REMARK  224  A    between atoms: _548  and  _550
REMARK  225  A    between atoms: _550  and  _551
REMARK  226  A    between atoms: _550  and  _553
REMARK  227  A    between atoms: _553  and  _554
REMARK  228  A    between atoms: _557  and  _559
REMARK  229  A    between atoms: _559  and  _560
REMARK  230  A    between atoms: _562  and  _564
REMARK  231  A    between atoms: _564  and  _565
REMARK  232  A    between atoms: _564  and  _567
REMARK  233  A    between atoms: _567  and  _568
REMARK  234  A    between atoms: _568  and  _569
REMARK  235  A    between atoms: _569  and  _570
REMARK  236  A    between atoms: _579  and  _581
REMARK  237  A    between atoms: _581  and  _582
REMARK  238  A    between atoms: _581  and  _584
REMARK  239  A    between atoms: _584  and  _585
REMARK                            x       y       z     vdW  Elec       q    Type
REMARK                         _______ _______ _______ _____ _____    ______ ____
ROOT
ATOM      1  O   HOH     1      14.893  15.942  12.047  0.00  0.00    +0.000 OA
ENDROOT
TORSDOF 0
REMARK  Name = ../refined-set-2016/3nu5/3nu5_pocket.pdb
REMARK  239 active torsions:
REMARK  status: ('A' for Active; 'I' for Inactive)
REMARK    1  A    between atoms: _1  and  _3
REMARK    2  A    between atoms: _3  and  _4
REMARK    3  A    between atoms: _3  and  _6
REMARK    4  A    between atoms: _6  and  _7
REMARK    5  A    between atoms: _7  and  _8
REMARK    6  A    between atoms: _8  and  _9
REMARK    7  A    between atoms: _18  and  _20
REMARK    8  A    between atoms: _20  and  _21
REMARK    9  A    between atoms: _20  and  _23
REMARK   10  A    between atoms: _23  and  _24
REMARK   11  A    between atoms: _27  and  _29
REMARK   12  A    between atoms: _29  and  _30
REMARK   13  A    between atoms: _29  and  _32
REMARK   14  A    between atoms: _32  and  _33
REMARK   15  A    between atoms: _36  and  _38
REMARK   16  A    between atoms: _38  and  _39
REMARK   17  A    between atoms: _38  and  _41
REMARK   18  A    between atoms: _41  and  _42
REMARK   19  A    between atoms: _45  and  _47
REMARK   20  A    between atoms: _47  and  _48
REMARK   21  A    between atoms: _47  and  _50
REMARK   22  A    between atoms: _50  and  _51
REMARK   23  A    between atoms: _54  and  _56
REMARK   24  A    between atoms: _56  and  _57
REMARK   25  A    between atoms: _59  and  _61
REMARK   26  A    between atoms: _61  and  _62
REMARK   27  A    between atoms: _65  and  _67
REMARK   28  A    between atoms: _67  and  _68
REMARK   29  A    between atoms: _67  and  _70
REMARK   30  A    between atoms: _70  and  _71
REMARK   31  A    between atoms: _74  and  _76
REMARK   32  A    between atoms: _76  and  _77
REMARK   33  A    between atoms: _76  and  _79
REMARK   34  A    between atoms: _79  and  _80
REMARK   35  A    between atoms: _83  and  _85
REMARK   36  A    between atoms: _85  and  _86
REMARK   37  A    between atoms: _85  and  _88
REMARK   38  A    between atoms: _88  and  _89
REMARK   39  A    between atoms: _92  and  _94
REMARK   40  A    between atoms: _94  and  _95
REMARK   41  A    between atoms: _94  and  _97
REMARK   42  A    between atoms: _100  and  _102
REMARK   43  A    between atoms: _102  and  _103
REMARK   44  A    between atoms: _102  and  _105
REMARK   45  A    between atoms: _105  and  _106
REMARK   46  A    between atoms: _109  and  _111
REMARK   47  A    between atoms: _111  and  _112
REMARK   48  A    between atoms: _111  and  _114
REMARK   49  A    between atoms: _114  and  _115
REMARK   50  A    between atoms: _115  and  _116
REMARK   51  A    between atoms: _116  and  _117
REMARK   52  A    between atoms: _117  and  _118
REMARK   53  A    between atoms: _122  and  _124
REMARK   54  A    between atoms: _124  and  _125
REMARK   55  A    between atoms: _124  and  _127
REMARK   56  A    between atoms: _127  and  _128
REMARK   57  A    between atoms: _128  and  _129
REMARK   58  A    between atoms: _131  and  _133
REMARK   59  A    between atoms: _133  and  _134
REMARK   60  A    between atoms: _133  and  _136
REMARK   61  A    between atoms: _136  and  _137
REMARK   62  A    between atoms: _140  and  _142
REMARK   63  A    between atoms: _142  and  _143
REMARK   64  A    between atoms: _145  and  _147
REMARK   65  A    between atoms: _147  and  _148
REMARK   66  A    between atoms: _150  and  _152
REMARK   67  A    between atoms: _152  and  _153
REMARK   68  A    between atoms: _152  and  _155
REMARK   69  A    between atoms: _158  and  _160
REMARK   70  A    between atoms: _160  and  _161
REMARK   71  A    between atoms: _163  and  _165
REMARK   72  A    between atoms: _165  and  _166
REMARK   73  A    between atoms: _168  and  _170
REMARK   74  A    between atoms: _170  and  _171
REMARK   75  A    between atoms: _170  and  _173
REMARK   76  A    between atoms: _173  and  _174
REMARK   77  A    between atoms: _180  and  _182
REMARK   78  A    between atoms: _182  and  _183
REMARK   79  A    between atoms: _182  and  _185
REMARK   80  A    between atoms: _185  and  _186
REMARK   81  A    between atoms: _189  and  _191
REMARK   82  A    between atoms: _191  and  _192
REMARK   83  A    between atoms: _191  and  _194
REMARK   84  A    between atoms: _197  and  _199
REMARK   85  A    between atoms: _199  and  _200
REMARK   86  A    between atoms: _199  and  _202
REMARK   87  A    between atoms: _202  and  _203
REMARK   88  A    between atoms: _207  and  _208
REMARK   89  A    between atoms: _213  and  _215
REMARK   90  A    between atoms: _215  and  _216
REMARK   91  A    between atoms: _215  and  _218
REMARK   92  A    between atoms: _218  and  _219
REMARK   93  A    between atoms: _223  and  _224
REMARK   94  A    between atoms: _229  and  _231
REMARK   95  A    between atoms: _231  and  _232
REMARK   96  A    between atoms: _231  and  _234
REMARK   97  A    between atoms: _237  and  _239
REMARK   98  A    between atoms: _239  and  _240
REMARK   99  A    between atoms: _239  and  _242
REMARK  100  A    between atoms: _242  and  _243
REMARK  101  A    between atoms: _248  and  _250
REMARK  102  A    between atoms: _250  and  _251
REMARK  103  A    between atoms: _250  and  _253
REMARK  104  A    between atoms: _253  and  _254
REMARK  105  A    between atoms: _257  and  _259
REMARK  106  A    between atoms: _259  and  _260
REMARK  107  A    between atoms: _259  and  _262
REMARK  108  A    between atoms: _262  and  _263
REMARK  109  A    between atoms: _266  and  _268
REMARK  110  A    between atoms: _268  and  _269
REMARK  111  A    between atoms: _271  and  _273
REMARK  112  A    between atoms: _273  and  _274
REMARK  113  A    between atoms: _273  and  _276
REMARK  114  A    between atoms: _276  and  _277
REMARK  115  A    between atoms: _277  and  _278
REMARK  116  A    between atoms: _278  and  _279
REMARK  117  A    between atoms: _288  and  _290
REMARK  118  A    between atoms: _290  and  _291
REMARK  119  A    between atoms: _290  and  _293
REMARK  120  A    between atoms: _293  and  _294
REMARK  121  A    between atoms: _299  and  _301
REMARK  122  A    between atoms: _301  and  _302
REMARK  123  A    between atoms: _301  and  _304
REMARK  124  A    between atoms: _304  and  _305
REMARK  125  A    between atoms: _305  and  _306
REMARK  126  A    between atoms: _306  and  _307
REMARK  127  A    between atoms: _316  and  _318
REMARK  128  A    between atoms: _318  and  _319
REMARK  129  A    between atoms: _318  and  _321
REMARK  130  A    between atoms: _321  and  _322
REMARK  131  A    between atoms: _325  and  _327
REMARK  132  A    between atoms: _327  and  _328
REMARK  133  A    between atoms: _327  and  _330
REMARK  134  A    between atoms: _330  and  _331
REMARK  135  A    between atoms: _334  and  _336
REMARK  136  A    between atoms: _336  and  _337
REMARK  137  A    between atoms: _336  and  _339
REMARK  138  A    between atoms: _339  and  _340
REMARK  139  A    between atoms: _343  and  _345
REMARK  140  A    between atoms: _345  and  _346
REMARK  141  A    between atoms: _345  and  _348
REMARK  142  A    between atoms: _348  and  _349
REMARK  143  A    between atoms: _352  and  _354
REMARK  144  A    between atoms: _354  and  _355
REMARK  145  A    between atoms: _357  and  _359
REMARK  146  A    between atoms: _359  and  _360
REMARK  147  A    between atoms: _363  and  _365
REMARK  148  A    between atoms: _365  and  _366
REMARK  149  A    between atoms: _365  and  _368
REMARK  150  A    between atoms: _368  and  _369
REMARK  151  A    between atoms: _372  and  _374
REMARK  152  A    between atoms: _374  and  _375
REMARK  153  A    between atoms: _374  and  _377
REMARK  154  A    between atoms: _377  and  _378
REMARK  155  A    between atoms: _381  and  _383
REMARK  156  A    between atoms: _383  and  _384
REMARK  157  A    between atoms: _383  and  _386
REMARK  158  A    between atoms: _386  and  _387
REMARK  159  A    between atoms: _390  and  _392
REMARK  160  A    between atoms: _392  and  _393
REMARK  161  A    between atoms: _392  and  _395
REMARK  162  A    between atoms: _398  and  _400
REMARK  163  A    between atoms: _400  and  _401
REMARK  164  A    between atoms: _400  and  _403
REMARK  165  A    between atoms: _403  and  _404
REMARK  166  A    between atoms: _407  and  _409
REMARK  167  A    between atoms: _409  and  _410
REMARK  168  A    between atoms: _409  and  _412
REMARK  169  A    between atoms: _412  and  _413
REMARK  170  A    between atoms: _413  and  _414
REMARK  171  A    between atoms: _414  and  _415
REMARK  172  A    between atoms: _415  and  _416
REMARK  173  A    between atoms: _420  and  _422
REMARK  174  A    between atoms: _422  and  _423
REMARK  175  A    between atoms: _422  and  _425
REMARK  176  A    between atoms: _425  and  _426
REMARK  177  A    between atoms: _426  and  _427
REMARK  178  A    between atoms: _429  and  _431
REMARK  179  A    between atoms: _431  and  _432
REMARK  180  A    between atoms: _431  and  _434
REMARK  181  A    between atoms: _434  and  _435
REMARK  182  A    between atoms: _438  and  _440
REMARK  183  A    between atoms: _440  and  _441
REMARK  184  A    between atoms: _443  and  _445
REMARK  185  A    between atoms: _445  and  _446
REMARK  186  A    between atoms: _448  and  _450
REMARK  187  A    between atoms: _450  and  _451
REMARK  188  A    between atoms: _450  and  _453
REMARK  189  A    between atoms: _456  and  _458
REMARK  190  A    between atoms: _458  and  _459
REMARK  191  A    between atoms: _461  and  _463
REMARK  192  A    between atoms: _463  and  _464
REMARK  193  A    between atoms: _466  and  _468
REMARK  194  A    between atoms: _468  and  _469
REMARK  195  A    between atoms: _468  and  _471
REMARK  196  A    between atoms: _471  and  _472
REMARK  197  A    between atoms: _478  and  _480
REMARK  198  A    between atoms: _480  and  _481
REMARK  199  A    between atoms: _480  and  _483
REMARK  200  A    between atoms: _483  and  _484
REMARK  201  A    between atoms: _487  and  _489
REMARK  202  A    between atoms: _489  and  _490
REMARK  203  A    between atoms: _489  and  _492
REMARK  204  A    between atoms: _495  and  _497
REMARK  205  A    between atoms: _497  and  _498
REMARK  206  A    between atoms: _497  and  _500
REMARK  207  A    between atoms: _500  and  _501
REMARK  208  A    between atoms: _504  and  _506
REMARK  209  A    between atoms: _506  and  _507
REMARK  210  A    between atoms: _506  and  _509
REMARK  211  A    between atoms: _509  and  _510
REMARK  212  A    between atoms: _514  and  _515
REMARK  213  A    between atoms: _520  and  _522
REMARK  214  A    between atoms: _522  and  _523
REMARK  215  A    between atoms: _522  and  _525
REMARK  216  A    between atoms: _528  and  _530
REMARK  217  A    between atoms: _530  and  _531
REMARK  218  A    between atoms: _530  and  _533
REMARK  219  A    between atoms: _533  and  _534
REMARK  220  A    between atoms: _539  and  _541
REMARK  221  A    between atoms: _541  and  _542
REMARK  222  A    between atoms: _541  and  _544
REMARK  223  A    between atoms: _544  and  _545
REMARK  224  A    between atoms: _548  and  _550
REMARK  225  A    between atoms: _550  and  _551
REMARK  226  A    between atoms: _550  and  _553
REMARK  227  A    between atoms: _553  and  _554
REMARK  228  A    between atoms: _557  and  _559
REMARK  229  A    between atoms: _559  and  _560
REMARK  230  A    between atoms: _562  and  _564
REMARK  231  A    between atoms: _564  and  _565
REMARK  232  A    between atoms: _564  and  _567
REMARK  233  A    between atoms: _567  and  _568
REMARK  234  A    between atoms: _568  and  _569
REMARK  235  A    between atoms: _569  and  _570
REMARK  236  A    between atoms: _579  and  _581
REMARK  237  A    between atoms: _581  and  _582
REMARK  238  A    between atoms: _581  and  _584
REMARK  239  A    between atoms: _584  and  _585
REMARK                            x       y       z     vdW  Elec       q    Type
REMARK                         _______ _______ _______ _____ _____    ______ ____
ROOT
ATOM      1  O   HOH     1      10.754  15.197  16.891  0.00  0.00    +0.000 OA
ENDROOT
TORSDOF 0
REMARK  Name = ../refined-set-2016/3nu5/3nu5_pocket.pdb
REMARK  239 active torsions:
REMARK  status: ('A' for Active; 'I' for Inactive)
REMARK    1  A    between atoms: _1  and  _3
REMARK    2  A    between atoms: _3  and  _4
REMARK    3  A    between atoms: _3  and  _6
REMARK    4  A    between atoms: _6  and  _7
REMARK    5  A    between atoms: _7  and  _8
REMARK    6  A    between atoms: _8  and  _9
REMARK    7  A    between atoms: _18  and  _20
REMARK    8  A    between atoms: _20  and  _21
REMARK    9  A    between atoms: _20  and  _23
REMARK   10  A    between atoms: _23  and  _24
REMARK   11  A    between atoms: _27  and  _29
REMARK   12  A    between atoms: _29  and  _30
REMARK   13  A    between atoms: _29  and  _32
REMARK   14  A    between atoms: _32  and  _33
REMARK   15  A    between atoms: _36  and  _38
REMARK   16  A    between atoms: _38  and  _39
REMARK   17  A    between atoms: _38  and  _41
REMARK   18  A    between atoms: _41  and  _42
REMARK   19  A    between atoms: _45  and  _47
REMARK   20  A    between atoms: _47  and  _48
REMARK   21  A    between atoms: _47  and  _50
REMARK   22  A    between atoms: _50  and  _51
REMARK   23  A    between atoms: _54  and  _56
REMARK   24  A    between atoms: _56  and  _57
REMARK   25  A    between atoms: _59  and  _61
REMARK   26  A    between atoms: _61  and  _62
REMARK   27  A    between atoms: _65  and  _67
REMARK   28  A    between atoms: _67  and  _68
REMARK   29  A    between atoms: _67  and  _70
REMARK   30  A    between atoms: _70  and  _71
REMARK   31  A    between atoms: _74  and  _76
REMARK   32  A    between atoms: _76  and  _77
REMARK   33  A    between atoms: _76  and  _79
REMARK   34  A    between atoms: _79  and  _80
REMARK   35  A    between atoms: _83  and  _85
REMARK   36  A    between atoms: _85  and  _86
REMARK   37  A    between atoms: _85  and  _88
REMARK   38  A    between atoms: _88  and  _89
REMARK   39  A    between atoms: _92  and  _94
REMARK   40  A    between atoms: _94  and  _95
REMARK   41  A    between atoms: _94  and  _97
REMARK   42  A    between atoms: _100  and  _102
REMARK   43  A    between atoms: _102  and  _103
REMARK   44  A    between atoms: _102  and  _105
REMARK   45  A    between atoms: _105  and  _106
REMARK   46  A    between atoms: _109  and  _111
REMARK   47  A    between atoms: _111  and  _112
REMARK   48  A    between atoms: _111  and  _114
REMARK   49  A    between atoms: _114  and  _115
REMARK   50  A    between atoms: _115  and  _116
REMARK   51  A    between atoms: _116  and  _117
REMARK   52  A    between atoms: _117  and  _118
REMARK   53  A    between atoms: _122  and  _124
REMARK   54  A    between atoms: _124  and  _125
REMARK   55  A    between atoms: _124  and  _127
REMARK   56  A    between atoms: _127  and  _128
REMARK   57  A    between atoms: _128  and  _129
REMARK   58  A    between atoms: _131  and  _133
REMARK   59  A    between atoms: _133  and  _134
REMARK   60  A    between atoms: _133  and  _136
REMARK   61  A    between atoms: _136  and  _137
REMARK   62  A    between atoms: _140  and  _142
REMARK   63  A    between atoms: _142  and  _143
REMARK   64  A    between atoms: _145  and  _147
REMARK   65  A    between atoms: _147  and  _148
REMARK   66  A    between atoms: _150  and  _152
REMARK   67  A    between atoms: _152  and  _153
REMARK   68  A    between atoms: _152  and  _155
REMARK   69  A    between atoms: _158  and  _160
REMARK   70  A    between atoms: _160  and  _161
REMARK   71  A    between atoms: _163  and  _165
REMARK   72  A    between atoms: _165  and  _166
REMARK   73  A    between atoms: _168  and  _170
REMARK   74  A    between atoms: _170  and  _171
REMARK   75  A    between atoms: _170  and  _173
REMARK   76  A    between atoms: _173  and  _174
REMARK   77  A    between atoms: _180  and  _182
REMARK   78  A    between atoms: _182  and  _183
REMARK   79  A    between atoms: _182  and  _185
REMARK   80  A    between atoms: _185  and  _186
REMARK   81  A    between atoms: _189  and  _191
REMARK   82  A    between atoms: _191  and  _192
REMARK   83  A    between atoms: _191  and  _194
REMARK   84  A    between atoms: _197  and  _199
REMARK   85  A    between atoms: _199  and  _200
REMARK   86  A    between atoms: _199  and  _202
REMARK   87  A    between atoms: _202  and  _203
REMARK   88  A    between atoms: _207  and  _208
REMARK   89  A    between atoms: _213  and  _215
REMARK   90  A    between atoms: _215  and  _216
REMARK   91  A    between atoms: _215  and  _218
REMARK   92  A    between atoms: _218  and  _219
REMARK   93  A    between atoms: _223  and  _224
REMARK   94  A    between atoms: _229  and  _231
REMARK   95  A    between atoms: _231  and  _232
REMARK   96  A    between atoms: _231  and  _234
REMARK   97  A    between atoms: _237  and  _239
REMARK   98  A    between atoms: _239  and  _240
REMARK   99  A    between atoms: _239  and  _242
REMARK  100  A    between atoms: _242  and  _243
REMARK  101  A    between atoms: _248  and  _250
REMARK  102  A    between atoms: _250  and  _251
REMARK  103  A    between atoms: _250  and  _253
REMARK  104  A    between atoms: _253  and  _254
REMARK  105  A    between atoms: _257  and  _259
REMARK  106  A    between atoms: _259  and  _260
REMARK  107  A    between atoms: _259  and  _262
REMARK  108  A    between atoms: _262  and  _263
REMARK  109  A    between atoms: _266  and  _268
REMARK  110  A    between atoms: _268  and  _269
REMARK  111  A    between atoms: _271  and  _273
REMARK  112  A    between atoms: _273  and  _274
REMARK  113  A    between atoms: _273  and  _276
REMARK  114  A    between atoms: _276  and  _277
REMARK  115  A    between atoms: _277  and  _278
REMARK  116  A    between atoms: _278  and  _279
REMARK  117  A    between atoms: _288  and  _290
REMARK  118  A    between atoms: _290  and  _291
REMARK  119  A    between atoms: _290  and  _293
REMARK  120  A    between atoms: _293  and  _294
REMARK  121  A    between atoms: _299  and  _301
REMARK  122  A    between atoms: _301  and  _302
REMARK  123  A    between atoms: _301  and  _304
REMARK  124  A    between atoms: _304  and  _305
REMARK  125  A    between atoms: _305  and  _306
REMARK  126  A    between atoms: _306  and  _307
REMARK  127  A    between atoms: _316  and  _318
REMARK  128  A    between atoms: _318  and  _319
REMARK  129  A    between atoms: _318  and  _321
REMARK  130  A    between atoms: _321  and  _322
REMARK  131  A    between atoms: _325  and  _327
REMARK  132  A    between atoms: _327  and  _328
REMARK  133  A    between atoms: _327  and  _330
REMARK  134  A    between atoms: _330  and  _331
REMARK  135  A    between atoms: _334  and  _336
REMARK  136  A    between atoms: _336  and  _337
REMARK  137  A    between atoms: _336  and  _339
REMARK  138  A    between atoms: _339  and  _340
REMARK  139  A    between atoms: _343  and  _345
REMARK  140  A    between atoms: _345  and  _346
REMARK  141  A    between atoms: _345  and  _348
REMARK  142  A    between atoms: _348  and  _349
REMARK  143  A    between atoms: _352  and  _354
REMARK  144  A    between atoms: _354  and  _355
REMARK  145  A    between atoms: _357  and  _359
REMARK  146  A    between atoms: _359  and  _360
REMARK  147  A    between atoms: _363  and  _365
REMARK  148  A    between atoms: _365  and  _366
REMARK  149  A    between atoms: _365  and  _368
REMARK  150  A    between atoms: _368  and  _369
REMARK  151  A    between atoms: _372  and  _374
REMARK  152  A    between atoms: _374  and  _375
REMARK  153  A    between atoms: _374  and  _377
REMARK  154  A    between atoms: _377  and  _378
REMARK  155  A    between atoms: _381  and  _383
REMARK  156  A    between atoms: _383  and  _384
REMARK  157  A    between atoms: _383  and  _386
REMARK  158  A    between atoms: _386  and  _387
REMARK  159  A    between atoms: _390  and  _392
REMARK  160  A    between atoms: _392  and  _393
REMARK  161  A    between atoms: _392  and  _395
REMARK  162  A    between atoms: _398  and  _400
REMARK  163  A    between atoms: _400  and  _401
REMARK  164  A    between atoms: _400  and  _403
REMARK  165  A    between atoms: _403  and  _404
REMARK  166  A    between atoms: _407  and  _409
REMARK  167  A    between atoms: _409  and  _410
REMARK  168  A    between atoms: _409  and  _412
REMARK  169  A    between atoms: _412  and  _413
REMARK  170  A    between atoms: _413  and  _414
REMARK  171  A    between atoms: _414  and  _415
REMARK  172  A    between atoms: _415  and  _416
REMARK  173  A    between atoms: _420  and  _422
REMARK  174  A    between atoms: _422  and  _423
REMARK  175  A    between atoms: _422  and  _425
REMARK  176  A    between atoms: _425  and  _426
REMARK  177  A    between atoms: _426  and  _427
REMARK  178  A    between atoms: _429  and  _431
REMARK  179  A    between atoms: _431  and  _432
REMARK  180  A    between atoms: _431  and  _434
REMARK  181  A    between atoms: _434  and  _435
REMARK  182  A    between atoms: _438  and  _440
REMARK  183  A    between atoms: _440  and  _441
REMARK  184  A    between atoms: _443  and  _445
REMARK  185  A    between atoms: _445  and  _446
REMARK  186  A    between atoms: _448  and  _450
REMARK  187  A    between atoms: _450  and  _451
REMARK  188  A    between atoms: _450  and  _453
REMARK  189  A    between atoms: _456  and  _458
REMARK  190  A    between atoms: _458  and  _459
REMARK  191  A    between atoms: _461  and  _463
REMARK  192  A    between atoms: _463  and  _464
REMARK  193  A    between atoms: _466  and  _468
REMARK  194  A    between atoms: _468  and  _469
REMARK  195  A    between atoms: _468  and  _471
REMARK  196  A    between atoms: _471  and  _472
REMARK  197  A    between atoms: _478  and  _480
REMARK  198  A    between atoms: _480  and  _481
REMARK  199  A    between atoms: _480  and  _483
REMARK  200  A    between atoms: _483  and  _484
REMARK  201  A    between atoms: _487  and  _489
REMARK  202  A    between atoms: _489  and  _490
REMARK  203  A    between atoms: _489  and  _492
REMARK  204  A    between atoms: _495  and  _497
REMARK  205  A    between atoms: _497  and  _498
REMARK  206  A    between atoms: _497  and  _500
REMARK  207  A    between atoms: _500  and  _501
REMARK  208  A    between atoms: _504  and  _506
REMARK  209  A    between atoms: _506  and  _507
REMARK  210  A    between atoms: _506  and  _509
REMARK  211  A    between atoms: _509  and  _510
REMARK  212  A    between atoms: _514  and  _515
REMARK  213  A    between atoms: _520  and  _522
REMARK  214  A    between atoms: _522  and  _523
REMARK  215  A    between atoms: _522  and  _525
REMARK  216  A    between atoms: _528  and  _530
REMARK  217  A    between atoms: _530  and  _531
REMARK  218  A    between atoms: _530  and  _533
REMARK  219  A    between atoms: _533  and  _534
REMARK  220  A    between atoms: _539  and  _541
REMARK  221  A    between atoms: _541  and  _542
REMARK  222  A    between atoms: _541  and  _544
REMARK  223  A    between atoms: _544  and  _545
REMARK  224  A    between atoms: _548  and  _550
REMARK  225  A    between atoms: _550  and  _551
REMARK  226  A    between atoms: _550  and  _553
REMARK  227  A    between atoms: _553  and  _554
REMARK  228  A    between atoms: _557  and  _559
REMARK  229  A    between atoms: _559  and  _560
REMARK  230  A    between atoms: _562  and  _564
REMARK  231  A    between atoms: _564  and  _565
REMARK  232  A    between atoms: _564  and  _567
REMARK  233  A    between atoms: _567  and  _568
REMARK  234  A    between atoms: _568  and  _569
REMARK  235  A    between atoms: _569  and  _570
REMARK  236  A    between atoms: _579  and  _581
REMARK  237  A    between atoms: _581  and  _582
REMARK  238  A    between atoms: _581  and  _584
REMARK  239  A    between atoms: _584  and  _585
REMARK                            x       y       z     vdW  Elec       q    Type
REMARK                         _______ _______ _______ _____ _____    ______ ____
ROOT
ATOM      1  O   HOH     1      12.279  16.539  11.835  0.00  0.00    +0.000 OA
ENDROOT
TORSDOF 0
REMARK  Name = ../refined-set-2016/3nu5/3nu5_pocket.pdb
REMARK  239 active torsions:
REMARK  status: ('A' for Active; 'I' for Inactive)
REMARK    1  A    between atoms: _1  and  _3
REMARK    2  A    between atoms: _3  and  _4
REMARK    3  A    between atoms: _3  and  _6
REMARK    4  A    between atoms: _6  and  _7
REMARK    5  A    between atoms: _7  and  _8
REMARK    6  A    between atoms: _8  and  _9
REMARK    7  A    between atoms: _18  and  _20
REMARK    8  A    between atoms: _20  and  _21
REMARK    9  A    between atoms: _20  and  _23
REMARK   10  A    between atoms: _23  and  _24
REMARK   11  A    between atoms: _27  and  _29
REMARK   12  A    between atoms: _29  and  _30
REMARK   13  A    between atoms: _29  and  _32
REMARK   14  A    between atoms: _32  and  _33
REMARK   15  A    between atoms: _36  and  _38
REMARK   16  A    between atoms: _38  and  _39
REMARK   17  A    between atoms: _38  and  _41
REMARK   18  A    between atoms: _41  and  _42
REMARK   19  A    between atoms: _45  and  _47
REMARK   20  A    between atoms: _47  and  _48
REMARK   21  A    between atoms: _47  and  _50
REMARK   22  A    between atoms: _50  and  _51
REMARK   23  A    between atoms: _54  and  _56
REMARK   24  A    between atoms: _56  and  _57
REMARK   25  A    between atoms: _59  and  _61
REMARK   26  A    between atoms: _61  and  _62
REMARK   27  A    between atoms: _65  and  _67
REMARK   28  A    between atoms: _67  and  _68
REMARK   29  A    between atoms: _67  and  _70
REMARK   30  A    between atoms: _70  and  _71
REMARK   31  A    between atoms: _74  and  _76
REMARK   32  A    between atoms: _76  and  _77
REMARK   33  A    between atoms: _76  and  _79
REMARK   34  A    between atoms: _79  and  _80
REMARK   35  A    between atoms: _83  and  _85
REMARK   36  A    between atoms: _85  and  _86
REMARK   37  A    between atoms: _85  and  _88
REMARK   38  A    between atoms: _88  and  _89
REMARK   39  A    between atoms: _92  and  _94
REMARK   40  A    between atoms: _94  and  _95
REMARK   41  A    between atoms: _94  and  _97
REMARK   42  A    between atoms: _100  and  _102
REMARK   43  A    between atoms: _102  and  _103
REMARK   44  A    between atoms: _102  and  _105
REMARK   45  A    between atoms: _105  and  _106
REMARK   46  A    between atoms: _109  and  _111
REMARK   47  A    between atoms: _111  and  _112
REMARK   48  A    between atoms: _111  and  _114
REMARK   49  A    between atoms: _114  and  _115
REMARK   50  A    between atoms: _115  and  _116
REMARK   51  A    between atoms: _116  and  _117
REMARK   52  A    between atoms: _117  and  _118
REMARK   53  A    between atoms: _122  and  _124
REMARK   54  A    between atoms: _124  and  _125
REMARK   55  A    between atoms: _124  and  _127
REMARK   56  A    between atoms: _127  and  _128
REMARK   57  A    between atoms: _128  and  _129
REMARK   58  A    between atoms: _131  and  _133
REMARK   59  A    between atoms: _133  and  _134
REMARK   60  A    between atoms: _133  and  _136
REMARK   61  A    between atoms: _136  and  _137
REMARK   62  A    between atoms: _140  and  _142
REMARK   63  A    between atoms: _142  and  _143
REMARK   64  A    between atoms: _145  and  _147
REMARK   65  A    between atoms: _147  and  _148
REMARK   66  A    between atoms: _150  and  _152
REMARK   67  A    between atoms: _152  and  _153
REMARK   68  A    between atoms: _152  and  _155
REMARK   69  A    between atoms: _158  and  _160
REMARK   70  A    between atoms: _160  and  _161
REMARK   71  A    between atoms: _163  and  _165
REMARK   72  A    between atoms: _165  and  _166
REMARK   73  A    between atoms: _168  and  _170
REMARK   74  A    between atoms: _170  and  _171
REMARK   75  A    between atoms: _170  and  _173
REMARK   76  A    between atoms: _173  and  _174
REMARK   77  A    between atoms: _180  and  _182
REMARK   78  A    between atoms: _182  and  _183
REMARK   79  A    between atoms: _182  and  _185
REMARK   80  A    between atoms: _185  and  _186
REMARK   81  A    between atoms: _189  and  _191
REMARK   82  A    between atoms: _191  and  _192
REMARK   83  A    between atoms: _191  and  _194
REMARK   84  A    between atoms: _197  and  _199
REMARK   85  A    between atoms: _199  and  _200
REMARK   86  A    between atoms: _199  and  _202
REMARK   87  A    between atoms: _202  and  _203
REMARK   88  A    between atoms: _207  and  _208
REMARK   89  A    between atoms: _213  and  _215
REMARK   90  A    between atoms: _215  and  _216
REMARK   91  A    between atoms: _215  and  _218
REMARK   92  A    between atoms: _218  and  _219
REMARK   93  A    between atoms: _223  and  _224
REMARK   94  A    between atoms: _229  and  _231
REMARK   95  A    between atoms: _231  and  _232
REMARK   96  A    between atoms: _231  and  _234
REMARK   97  A    between atoms: _237  and  _239
REMARK   98  A    between atoms: _239  and  _240
REMARK   99  A    between atoms: _239  and  _242
REMARK  100  A    between atoms: _242  and  _243
REMARK  101  A    between atoms: _248  and  _250
REMARK  102  A    between atoms: _250  and  _251
REMARK  103  A    between atoms: _250  and  _253
REMARK  104  A    between atoms: _253  and  _254
REMARK  105  A    between atoms: _257  and  _259
REMARK  106  A    between atoms: _259  and  _260
REMARK  107  A    between atoms: _259  and  _262
REMARK  108  A    between atoms: _262  and  _263
REMARK  109  A    between atoms: _266  and  _268
REMARK  110  A    between atoms: _268  and  _269
REMARK  111  A    between atoms: _271  and  _273
REMARK  112  A    between atoms: _273  and  _274
REMARK  113  A    between atoms: _273  and  _276
REMARK  114  A    between atoms: _276  and  _277
REMARK  115  A    between atoms: _277  and  _278
REMARK  116  A    between atoms: _278  and  _279
REMARK  117  A    between atoms: _288  and  _290
REMARK  118  A    between atoms: _290  and  _291
REMARK  119  A    between atoms: _290  and  _293
REMARK  120  A    between atoms: _293  and  _294
REMARK  121  A    between atoms: _299  and  _301
REMARK  122  A    between atoms: _301  and  _302
REMARK  123  A    between atoms: _301  and  _304
REMARK  124  A    between atoms: _304  and  _305
REMARK  125  A    between atoms: _305  and  _306
REMARK  126  A    between atoms: _306  and  _307
REMARK  127  A    between atoms: _316  and  _318
REMARK  128  A    between atoms: _318  and  _319
REMARK  129  A    between atoms: _318  and  _321
REMARK  130  A    between atoms: _321  and  _322
REMARK  131  A    between atoms: _325  and  _327
REMARK  132  A    between atoms: _327  and  _328
REMARK  133  A    between atoms: _327  and  _330
REMARK  134  A    between atoms: _330  and  _331
REMARK  135  A    between atoms: _334  and  _336
REMARK  136  A    between atoms: _336  and  _337
REMARK  137  A    between atoms: _336  and  _339
REMARK  138  A    between atoms: _339  and  _340
REMARK  139  A    between atoms: _343  and  _345
REMARK  140  A    between atoms: _345  and  _346
REMARK  141  A    between atoms: _345  and  _348
REMARK  142  A    between atoms: _348  and  _349
REMARK  143  A    between atoms: _352  and  _354
REMARK  144  A    between atoms: _354  and  _355
REMARK  145  A    between atoms: _357  and  _359
REMARK  146  A    between atoms: _359  and  _360
REMARK  147  A    between atoms: _363  and  _365
REMARK  148  A    between atoms: _365  and  _366
REMARK  149  A    between atoms: _365  and  _368
REMARK  150  A    between atoms: _368  and  _369
REMARK  151  A    between atoms: _372  and  _374
REMARK  152  A    between atoms: _374  and  _375
REMARK  153  A    between atoms: _374  and  _377
REMARK  154  A    between atoms: _377  and  _378
REMARK  155  A    between atoms: _381  and  _383
REMARK  156  A    between atoms: _383  and  _384
REMARK  157  A    between atoms: _383  and  _386
REMARK  158  A    between atoms: _386  and  _387
REMARK  159  A    between atoms: _390  and  _392
REMARK  160  A    between atoms: _392  and  _393
REMARK  161  A    between atoms: _392  and  _395
REMARK  162  A    between atoms: _398  and  _400
REMARK  163  A    between atoms: _400  and  _401
REMARK  164  A    between atoms: _400  and  _403
REMARK  165  A    between atoms: _403  and  _404
REMARK  166  A    between atoms: _407  and  _409
REMARK  167  A    between atoms: _409  and  _410
REMARK  168  A    between atoms: _409  and  _412
REMARK  169  A    between atoms: _412  and  _413
REMARK  170  A    between atoms: _413  and  _414
REMARK  171  A    between atoms: _414  and  _415
REMARK  172  A    between atoms: _415  and  _416
REMARK  173  A    between atoms: _420  and  _422
REMARK  174  A    between atoms: _422  and  _423
REMARK  175  A    between atoms: _422  and  _425
REMARK  176  A    between atoms: _425  and  _426
REMARK  177  A    between atoms: _426  and  _427
REMARK  178  A    between atoms: _429  and  _431
REMARK  179  A    between atoms: _431  and  _432
REMARK  180  A    between atoms: _431  and  _434
REMARK  181  A    between atoms: _434  and  _435
REMARK  182  A    between atoms: _438  and  _440
REMARK  183  A    between atoms: _440  and  _441
REMARK  184  A    between atoms: _443  and  _445
REMARK  185  A    between atoms: _445  and  _446
REMARK  186  A    between atoms: _448  and  _450
REMARK  187  A    between atoms: _450  and  _451
REMARK  188  A    between atoms: _450  and  _453
REMARK  189  A    between atoms: _456  and  _458
REMARK  190  A    between atoms: _458  and  _459
REMARK  191  A    between atoms: _461  and  _463
REMARK  192  A    between atoms: _463  and  _464
REMARK  193  A    between atoms: _466  and  _468
REMARK  194  A    between atoms: _468  and  _469
REMARK  195  A    between atoms: _468  and  _471
REMARK  196  A    between atoms: _471  and  _472
REMARK  197  A    between atoms: _478  and  _480
REMARK  198  A    between atoms: _480  and  _481
REMARK  199  A    between atoms: _480  and  _483
REMARK  200  A    between atoms: _483  and  _484
REMARK  201  A    between atoms: _487  and  _489
REMARK  202  A    between atoms: _489  and  _490
REMARK  203  A    between atoms: _489  and  _492
REMARK  204  A    between atoms: _495  and  _497
REMARK  205  A    between atoms: _497  and  _498
REMARK  206  A    between atoms: _497  and  _500
REMARK  207  A    between atoms: _500  and  _501
REMARK  208  A    between atoms: _504  and  _506
REMARK  209  A    between atoms: _506  and  _507
REMARK  210  A    between atoms: _506  and  _509
REMARK  211  A    between atoms: _509  and  _510
REMARK  212  A    between atoms: _514  and  _515
REMARK  213  A    between atoms: _520  and  _522
REMARK  214  A    between atoms: _522  and  _523
REMARK  215  A    between atoms: _522  and  _525
REMARK  216  A    between atoms: _528  and  _530
REMARK  217  A    between atoms: _530  and  _531
REMARK  218  A    between atoms: _530  and  _533
REMARK  219  A    between atoms: _533  and  _534
REMARK  220  A    between atoms: _539  and  _541
REMARK  221  A    between atoms: _541  and  _542
REMARK  222  A    between atoms: _541  and  _544
REMARK  223  A    between atoms: _544  and  _545
REMARK  224  A    between atoms: _548  and  _550
REMARK  225  A    between atoms: _550  and  _551
REMARK  226  A    between atoms: _550  and  _553
REMARK  227  A    between atoms: _553  and  _554
REMARK  228  A    between atoms: _557  and  _559
REMARK  229  A    between atoms: _559  and  _560
REMARK  230  A    between atoms: _562  and  _564
REMARK  231  A    between atoms: _564  and  _565
REMARK  232  A    between atoms: _564  and  _567
REMARK  233  A    between atoms: _567  and  _568
REMARK  234  A    between atoms: _568  and  _569
REMARK  235  A    between atoms: _569  and  _570
REMARK  236  A    between atoms: _579  and  _581
REMARK  237  A    between atoms: _581  and  _582
REMARK  238  A    between atoms: _581  and  _584
REMARK  239  A    between atoms: _584  and  _585
REMARK                            x       y       z     vdW  Elec       q    Type
REMARK                         _______ _______ _______ _____ _____    ______ ____
ROOT
ATOM      1  O   HOH     1      23.241  27.810  25.926  0.00  0.00    +0.000 OA
ENDROOT
TORSDOF 0
REMARK  Name = ../refined-set-2016/3nu5/3nu5_pocket.pdb
REMARK  239 active torsions:
REMARK  status: ('A' for Active; 'I' for Inactive)
REMARK    1  A    between atoms: _1  and  _3
REMARK    2  A    between atoms: _3  and  _4
REMARK    3  A    between atoms: _3  and  _6
REMARK    4  A    between atoms: _6  and  _7
REMARK    5  A    between atoms: _7  and  _8
REMARK    6  A    between atoms: _8  and  _9
REMARK    7  A    between atoms: _18  and  _20
REMARK    8  A    between atoms: _20  and  _21
REMARK    9  A    between atoms: _20  and  _23
REMARK   10  A    between atoms: _23  and  _24
REMARK   11  A    between atoms: _27  and  _29
REMARK   12  A    between atoms: _29  and  _30
REMARK   13  A    between atoms: _29  and  _32
REMARK   14  A    between atoms: _32  and  _33
REMARK   15  A    between atoms: _36  and  _38
REMARK   16  A    between atoms: _38  and  _39
REMARK   17  A    between atoms: _38  and  _41
REMARK   18  A    between atoms: _41  and  _42
REMARK   19  A    between atoms: _45  and  _47
REMARK   20  A    between atoms: _47  and  _48
REMARK   21  A    between atoms: _47  and  _50
REMARK   22  A    between atoms: _50  and  _51
REMARK   23  A    between atoms: _54  and  _56
REMARK   24  A    between atoms: _56  and  _57
REMARK   25  A    between atoms: _59  and  _61
REMARK   26  A    between atoms: _61  and  _62
REMARK   27  A    between atoms: _65  and  _67
REMARK   28  A    between atoms: _67  and  _68
REMARK   29  A    between atoms: _67  and  _70
REMARK   30  A    between atoms: _70  and  _71
REMARK   31  A    between atoms: _74  and  _76
REMARK   32  A    between atoms: _76  and  _77
REMARK   33  A    between atoms: _76  and  _79
REMARK   34  A    between atoms: _79  and  _80
REMARK   35  A    between atoms: _83  and  _85
REMARK   36  A    between atoms: _85  and  _86
REMARK   37  A    between atoms: _85  and  _88
REMARK   38  A    between atoms: _88  and  _89
REMARK   39  A    between atoms: _92  and  _94
REMARK   40  A    between atoms: _94  and  _95
REMARK   41  A    between atoms: _94  and  _97
REMARK   42  A    between atoms: _100  and  _102
REMARK   43  A    between atoms: _102  and  _103
REMARK   44  A    between atoms: _102  and  _105
REMARK   45  A    between atoms: _105  and  _106
REMARK   46  A    between atoms: _109  and  _111
REMARK   47  A    between atoms: _111  and  _112
REMARK   48  A    between atoms: _111  and  _114
REMARK   49  A    between atoms: _114  and  _115
REMARK   50  A    between atoms: _115  and  _116
REMARK   51  A    between atoms: _116  and  _117
REMARK   52  A    between atoms: _117  and  _118
REMARK   53  A    between atoms: _122  and  _124
REMARK   54  A    between atoms: _124  and  _125
REMARK   55  A    between atoms: _124  and  _127
REMARK   56  A    between atoms: _127  and  _128
REMARK   57  A    between atoms: _128  and  _129
REMARK   58  A    between atoms: _131  and  _133
REMARK   59  A    between atoms: _133  and  _134
REMARK   60  A    between atoms: _133  and  _136
REMARK   61  A    between atoms: _136  and  _137
REMARK   62  A    between atoms: _140  and  _142
REMARK   63  A    between atoms: _142  and  _143
REMARK   64  A    between atoms: _145  and  _147
REMARK   65  A    between atoms: _147  and  _148
REMARK   66  A    between atoms: _150  and  _152
REMARK   67  A    between atoms: _152  and  _153
REMARK   68  A    between atoms: _152  and  _155
REMARK   69  A    between atoms: _158  and  _160
REMARK   70  A    between atoms: _160  and  _161
REMARK   71  A    between atoms: _163  and  _165
REMARK   72  A    between atoms: _165  and  _166
REMARK   73  A    between atoms: _168  and  _170
REMARK   74  A    between atoms: _170  and  _171
REMARK   75  A    between atoms: _170  and  _173
REMARK   76  A    between atoms: _173  and  _174
REMARK   77  A    between atoms: _180  and  _182
REMARK   78  A    between atoms: _182  and  _183
REMARK   79  A    between atoms: _182  and  _185
REMARK   80  A    between atoms: _185  and  _186
REMARK   81  A    between atoms: _189  and  _191
REMARK   82  A    between atoms: _191  and  _192
REMARK   83  A    between atoms: _191  and  _194
REMARK   84  A    between atoms: _197  and  _199
REMARK   85  A    between atoms: _199  and  _200
REMARK   86  A    between atoms: _199  and  _202
REMARK   87  A    between atoms: _202  and  _203
REMARK   88  A    between atoms: _207  and  _208
REMARK   89  A    between atoms: _213  and  _215
REMARK   90  A    between atoms: _215  and  _216
REMARK   91  A    between atoms: _215  and  _218
REMARK   92  A    between atoms: _218  and  _219
REMARK   93  A    between atoms: _223  and  _224
REMARK   94  A    between atoms: _229  and  _231
REMARK   95  A    between atoms: _231  and  _232
REMARK   96  A    between atoms: _231  and  _234
REMARK   97  A    between atoms: _237  and  _239
REMARK   98  A    between atoms: _239  and  _240
REMARK   99  A    between atoms: _239  and  _242
REMARK  100  A    between atoms: _242  and  _243
REMARK  101  A    between atoms: _248  and  _250
REMARK  102  A    between atoms: _250  and  _251
REMARK  103  A    between atoms: _250  and  _253
REMARK  104  A    between atoms: _253  and  _254
REMARK  105  A    between atoms: _257  and  _259
REMARK  106  A    between atoms: _259  and  _260
REMARK  107  A    between atoms: _259  and  _262
REMARK  108  A    between atoms: _262  and  _263
REMARK  109  A    between atoms: _266  and  _268
REMARK  110  A    between atoms: _268  and  _269
REMARK  111  A    between atoms: _271  and  _273
REMARK  112  A    between atoms: _273  and  _274
REMARK  113  A    between atoms: _273  and  _276
REMARK  114  A    between atoms: _276  and  _277
REMARK  115  A    between atoms: _277  and  _278
REMARK  116  A    between atoms: _278  and  _279
REMARK  117  A    between atoms: _288  and  _290
REMARK  118  A    between atoms: _290  and  _291
REMARK  119  A    between atoms: _290  and  _293
REMARK  120  A    between atoms: _293  and  _294
REMARK  121  A    between atoms: _299  and  _301
REMARK  122  A    between atoms: _301  and  _302
REMARK  123  A    between atoms: _301  and  _304
REMARK  124  A    between atoms: _304  and  _305
REMARK  125  A    between atoms: _305  and  _306
REMARK  126  A    between atoms: _306  and  _307
REMARK  127  A    between atoms: _316  and  _318
REMARK  128  A    between atoms: _318  and  _319
REMARK  129  A    between atoms: _318  and  _321
REMARK  130  A    between atoms: _321  and  _322
REMARK  131  A    between atoms: _325  and  _327
REMARK  132  A    between atoms: _327  and  _328
REMARK  133  A    between atoms: _327  and  _330
REMARK  134  A    between atoms: _330  and  _331
REMARK  135  A    between atoms: _334  and  _336
REMARK  136  A    between atoms: _336  and  _337
REMARK  137  A    between atoms: _336  and  _339
REMARK  138  A    between atoms: _339  and  _340
REMARK  139  A    between atoms: _343  and  _345
REMARK  140  A    between atoms: _345  and  _346
REMARK  141  A    between atoms: _345  and  _348
REMARK  142  A    between atoms: _348  and  _349
REMARK  143  A    between atoms: _352  and  _354
REMARK  144  A    between atoms: _354  and  _355
REMARK  145  A    between atoms: _357  and  _359
REMARK  146  A    between atoms: _359  and  _360
REMARK  147  A    between atoms: _363  and  _365
REMARK  148  A    between atoms: _365  and  _366
REMARK  149  A    between atoms: _365  and  _368
REMARK  150  A    between atoms: _368  and  _369
REMARK  151  A    between atoms: _372  and  _374
REMARK  152  A    between atoms: _374  and  _375
REMARK  153  A    between atoms: _374  and  _377
REMARK  154  A    between atoms: _377  and  _378
REMARK  155  A    between atoms: _381  and  _383
REMARK  156  A    between atoms: _383  and  _384
REMARK  157  A    between atoms: _383  and  _386
REMARK  158  A    between atoms: _386  and  _387
REMARK  159  A    between atoms: _390  and  _392
REMARK  160  A    between atoms: _392  and  _393
REMARK  161  A    between atoms: _392  and  _395
REMARK  162  A    between atoms: _398  and  _400
REMARK  163  A    between atoms: _400  and  _401
REMARK  164  A    between atoms: _400  and  _403
REMARK  165  A    between atoms: _403  and  _404
REMARK  166  A    between atoms: _407  and  _409
REMARK  167  A    between atoms: _409  and  _410
REMARK  168  A    between atoms: _409  and  _412
REMARK  169  A    between atoms: _412  and  _413
REMARK  170  A    between atoms: _413  and  _414
REMARK  171  A    between atoms: _414  and  _415
REMARK  172  A    between atoms: _415  and  _416
REMARK  173  A    between atoms: _420  and  _422
REMARK  174  A    between atoms: _422  and  _423
REMARK  175  A    between atoms: _422  and  _425
REMARK  176  A    between atoms: _425  and  _426
REMARK  177  A    between atoms: _426  and  _427
REMARK  178  A    between atoms: _429  and  _431
REMARK  179  A    between atoms: _431  and  _432
REMARK  180  A    between atoms: _431  and  _434
REMARK  181  A    between atoms: _434  and  _435
REMARK  182  A    between atoms: _438  and  _440
REMARK  183  A    between atoms: _440  and  _441
REMARK  184  A    between atoms: _443  and  _445
REMARK  185  A    between atoms: _445  and  _446
REMARK  186  A    between atoms: _448  and  _450
REMARK  187  A    between atoms: _450  and  _451
REMARK  188  A    between atoms: _450  and  _453
REMARK  189  A    between atoms: _456  and  _458
REMARK  190  A    between atoms: _458  and  _459
REMARK  191  A    between atoms: _461  and  _463
REMARK  192  A    between atoms: _463  and  _464
REMARK  193  A    between atoms: _466  and  _468
REMARK  194  A    between atoms: _468  and  _469
REMARK  195  A    between atoms: _468  and  _471
REMARK  196  A    between atoms: _471  and  _472
REMARK  197  A    between atoms: _478  and  _480
REMARK  198  A    between atoms: _480  and  _481
REMARK  199  A    between atoms: _480  and  _483
REMARK  200  A    between atoms: _483  and  _484
REMARK  201  A    between atoms: _487  and  _489
REMARK  202  A    between atoms: _489  and  _490
REMARK  203  A    between atoms: _489  and  _492
REMARK  204  A    between atoms: _495  and  _497
REMARK  205  A    between atoms: _497  and  _498
REMARK  206  A    between atoms: _497  and  _500
REMARK  207  A    between atoms: _500  and  _501
REMARK  208  A    between atoms: _504  and  _506
REMARK  209  A    between atoms: _506  and  _507
REMARK  210  A    between atoms: _506  and  _509
REMARK  211  A    between atoms: _509  and  _510
REMARK  212  A    between atoms: _514  and  _515
REMARK  213  A    between atoms: _520  and  _522
REMARK  214  A    between atoms: _522  and  _523
REMARK  215  A    between atoms: _522  and  _525
REMARK  216  A    between atoms: _528  and  _530
REMARK  217  A    between atoms: _530  and  _531
REMARK  218  A    between atoms: _530  and  _533
REMARK  219  A    between atoms: _533  and  _534
REMARK  220  A    between atoms: _539  and  _541
REMARK  221  A    between atoms: _541  and  _542
REMARK  222  A    between atoms: _541  and  _544
REMARK  223  A    between atoms: _544  and  _545
REMARK  224  A    between atoms: _548  and  _550
REMARK  225  A    between atoms: _550  and  _551
REMARK  226  A    between atoms: _550  and  _553
REMARK  227  A    between atoms: _553  and  _554
REMARK  228  A    between atoms: _557  and  _559
REMARK  229  A    between atoms: _559  and  _560
REMARK  230  A    between atoms: _562  and  _564
REMARK  231  A    between atoms: _564  and  _565
REMARK  232  A    between atoms: _564  and  _567
REMARK  233  A    between atoms: _567  and  _568
REMARK  234  A    between atoms: _568  and  _569
REMARK  235  A    between atoms: _569  and  _570
REMARK  236  A    between atoms: _579  and  _581
REMARK  237  A    between atoms: _581  and  _582
REMARK  238  A    between atoms: _581  and  _584
REMARK  239  A    between atoms: _584  and  _585
REMARK                            x       y       z     vdW  Elec       q    Type
REMARK                         _______ _______ _______ _____ _____    ______ ____
ROOT
ATOM      1  O   HOH     1      11.211  17.904  16.246  0.00  0.00    +0.000 OA
ENDROOT
TORSDOF 0
REMARK  Name = ../refined-set-2016/3nu5/3nu5_pocket.pdb
REMARK  239 active torsions:
REMARK  status: ('A' for Active; 'I' for Inactive)
REMARK    1  A    between atoms: _1  and  _3
REMARK    2  A    between atoms: _3  and  _4
REMARK    3  A    between atoms: _3  and  _6
REMARK    4  A    between atoms: _6  and  _7
REMARK    5  A    between atoms: _7  and  _8
REMARK    6  A    between atoms: _8  and  _9
REMARK    7  A    between atoms: _18  and  _20
REMARK    8  A    between atoms: _20  and  _21
REMARK    9  A    between atoms: _20  and  _23
REMARK   10  A    between atoms: _23  and  _24
REMARK   11  A    between atoms: _27  and  _29
REMARK   12  A    between atoms: _29  and  _30
REMARK   13  A    between atoms: _29  and  _32
REMARK   14  A    between atoms: _32  and  _33
REMARK   15  A    between atoms: _36  and  _38
REMARK   16  A    between atoms: _38  and  _39
REMARK   17  A    between atoms: _38  and  _41
REMARK   18  A    between atoms: _41  and  _42
REMARK   19  A    between atoms: _45  and  _47
REMARK   20  A    between atoms: _47  and  _48
REMARK   21  A    between atoms: _47  and  _50
REMARK   22  A    between atoms: _50  and  _51
REMARK   23  A    between atoms: _54  and  _56
REMARK   24  A    between atoms: _56  and  _57
REMARK   25  A    between atoms: _59  and  _61
REMARK   26  A    between atoms: _61  and  _62
REMARK   27  A    between atoms: _65  and  _67
REMARK   28  A    between atoms: _67  and  _68
REMARK   29  A    between atoms: _67  and  _70
REMARK   30  A    between atoms: _70  and  _71
REMARK   31  A    between atoms: _74  and  _76
REMARK   32  A    between atoms: _76  and  _77
REMARK   33  A    between atoms: _76  and  _79
REMARK   34  A    between atoms: _79  and  _80
REMARK   35  A    between atoms: _83  and  _85
REMARK   36  A    between atoms: _85  and  _86
REMARK   37  A    between atoms: _85  and  _88
REMARK   38  A    between atoms: _88  and  _89
REMARK   39  A    between atoms: _92  and  _94
REMARK   40  A    between atoms: _94  and  _95
REMARK   41  A    between atoms: _94  and  _97
REMARK   42  A    between atoms: _100  and  _102
REMARK   43  A    between atoms: _102  and  _103
REMARK   44  A    between atoms: _102  and  _105
REMARK   45  A    between atoms: _105  and  _106
REMARK   46  A    between atoms: _109  and  _111
REMARK   47  A    between atoms: _111  and  _112
REMARK   48  A    between atoms: _111  and  _114
REMARK   49  A    between atoms: _114  and  _115
REMARK   50  A    between atoms: _115  and  _116
REMARK   51  A    between atoms: _116  and  _117
REMARK   52  A    between atoms: _117  and  _118
REMARK   53  A    between atoms: _122  and  _124
REMARK   54  A    between atoms: _124  and  _125
REMARK   55  A    between atoms: _124  and  _127
REMARK   56  A    between atoms: _127  and  _128
REMARK   57  A    between atoms: _128  and  _129
REMARK   58  A    between atoms: _131  and  _133
REMARK   59  A    between atoms: _133  and  _134
REMARK   60  A    between atoms: _133  and  _136
REMARK   61  A    between atoms: _136  and  _137
REMARK   62  A    between atoms: _140  and  _142
REMARK   63  A    between atoms: _142  and  _143
REMARK   64  A    between atoms: _145  and  _147
REMARK   65  A    between atoms: _147  and  _148
REMARK   66  A    between atoms: _150  and  _152
REMARK   67  A    between atoms: _152  and  _153
REMARK   68  A    between atoms: _152  and  _155
REMARK   69  A    between atoms: _158  and  _160
REMARK   70  A    between atoms: _160  and  _161
REMARK   71  A    between atoms: _163  and  _165
REMARK   72  A    between atoms: _165  and  _166
REMARK   73  A    between atoms: _168  and  _170
REMARK   74  A    between atoms: _170  and  _171
REMARK   75  A    between atoms: _170  and  _173
REMARK   76  A    between atoms: _173  and  _174
REMARK   77  A    between atoms: _180  and  _182
REMARK   78  A    between atoms: _182  and  _183
REMARK   79  A    between atoms: _182  and  _185
REMARK   80  A    between atoms: _185  and  _186
REMARK   81  A    between atoms: _189  and  _191
REMARK   82  A    between atoms: _191  and  _192
REMARK   83  A    between atoms: _191  and  _194
REMARK   84  A    between atoms: _197  and  _199
REMARK   85  A    between atoms: _199  and  _200
REMARK   86  A    between atoms: _199  and  _202
REMARK   87  A    between atoms: _202  and  _203
REMARK   88  A    between atoms: _207  and  _208
REMARK   89  A    between atoms: _213  and  _215
REMARK   90  A    between atoms: _215  and  _216
REMARK   91  A    between atoms: _215  and  _218
REMARK   92  A    between atoms: _218  and  _219
REMARK   93  A    between atoms: _223  and  _224
REMARK   94  A    between atoms: _229  and  _231
REMARK   95  A    between atoms: _231  and  _232
REMARK   96  A    between atoms: _231  and  _234
REMARK   97  A    between atoms: _237  and  _239
REMARK   98  A    between atoms: _239  and  _240
REMARK   99  A    between atoms: _239  and  _242
REMARK  100  A    between atoms: _242  and  _243
REMARK  101  A    between atoms: _248  and  _250
REMARK  102  A    between atoms: _250  and  _251
REMARK  103  A    between atoms: _250  and  _253
REMARK  104  A    between atoms: _253  and  _254
REMARK  105  A    between atoms: _257  and  _259
REMARK  106  A    between atoms: _259  and  _260
REMARK  107  A    between atoms: _259  and  _262
REMARK  108  A    between atoms: _262  and  _263
REMARK  109  A    between atoms: _266  and  _268
REMARK  110  A    between atoms: _268  and  _269
REMARK  111  A    between atoms: _271  and  _273
REMARK  112  A    between atoms: _273  and  _274
REMARK  113  A    between atoms: _273  and  _276
REMARK  114  A    between atoms: _276  and  _277
REMARK  115  A    between atoms: _277  and  _278
REMARK  116  A    between atoms: _278  and  _279
REMARK  117  A    between atoms: _288  and  _290
REMARK  118  A    between atoms: _290  and  _291
REMARK  119  A    between atoms: _290  and  _293
REMARK  120  A    between atoms: _293  and  _294
REMARK  121  A    between atoms: _299  and  _301
REMARK  122  A    between atoms: _301  and  _302
REMARK  123  A    between atoms: _301  and  _304
REMARK  124  A    between atoms: _304  and  _305
REMARK  125  A    between atoms: _305  and  _306
REMARK  126  A    between atoms: _306  and  _307
REMARK  127  A    between atoms: _316  and  _318
REMARK  128  A    between atoms: _318  and  _319
REMARK  129  A    between atoms: _318  and  _321
REMARK  130  A    between atoms: _321  and  _322
REMARK  131  A    between atoms: _325  and  _327
REMARK  132  A    between atoms: _327  and  _328
REMARK  133  A    between atoms: _327  and  _330
REMARK  134  A    between atoms: _330  and  _331
REMARK  135  A    between atoms: _334  and  _336
REMARK  136  A    between atoms: _336  and  _337
REMARK  137  A    between atoms: _336  and  _339
REMARK  138  A    between atoms: _339  and  _340
REMARK  139  A    between atoms: _343  and  _345
REMARK  140  A    between atoms: _345  and  _346
REMARK  141  A    between atoms: _345  and  _348
REMARK  142  A    between atoms: _348  and  _349
REMARK  143  A    between atoms: _352  and  _354
REMARK  144  A    between atoms: _354  and  _355
REMARK  145  A    between atoms: _357  and  _359
REMARK  146  A    between atoms: _359  and  _360
REMARK  147  A    between atoms: _363  and  _365
REMARK  148  A    between atoms: _365  and  _366
REMARK  149  A    between atoms: _365  and  _368
REMARK  150  A    between atoms: _368  and  _369
REMARK  151  A    between atoms: _372  and  _374
REMARK  152  A    between atoms: _374  and  _375
REMARK  153  A    between atoms: _374  and  _377
REMARK  154  A    between atoms: _377  and  _378
REMARK  155  A    between atoms: _381  and  _383
REMARK  156  A    between atoms: _383  and  _384
REMARK  157  A    between atoms: _383  and  _386
REMARK  158  A    between atoms: _386  and  _387
REMARK  159  A    between atoms: _390  and  _392
REMARK  160  A    between atoms: _392  and  _393
REMARK  161  A    between atoms: _392  and  _395
REMARK  162  A    between atoms: _398  and  _400
REMARK  163  A    between atoms: _400  and  _401
REMARK  164  A    between atoms: _400  and  _403
REMARK  165  A    between atoms: _403  and  _404
REMARK  166  A    between atoms: _407  and  _409
REMARK  167  A    between atoms: _409  and  _410
REMARK  168  A    between atoms: _409  and  _412
REMARK  169  A    between atoms: _412  and  _413
REMARK  170  A    between atoms: _413  and  _414
REMARK  171  A    between atoms: _414  and  _415
REMARK  172  A    between atoms: _415  and  _416
REMARK  173  A    between atoms: _420  and  _422
REMARK  174  A    between atoms: _422  and  _423
REMARK  175  A    between atoms: _422  and  _425
REMARK  176  A    between atoms: _425  and  _426
REMARK  177  A    between atoms: _426  and  _427
REMARK  178  A    between atoms: _429  and  _431
REMARK  179  A    between atoms: _431  and  _432
REMARK  180  A    between atoms: _431  and  _434
REMARK  181  A    between atoms: _434  and  _435
REMARK  182  A    between atoms: _438  and  _440
REMARK  183  A    between atoms: _440  and  _441
REMARK  184  A    between atoms: _443  and  _445
REMARK  185  A    between atoms: _445  and  _446
REMARK  186  A    between atoms: _448  and  _450
REMARK  187  A    between atoms: _450  and  _451
REMARK  188  A    between atoms: _450  and  _453
REMARK  189  A    between atoms: _456  and  _458
REMARK  190  A    between atoms: _458  and  _459
REMARK  191  A    between atoms: _461  and  _463
REMARK  192  A    between atoms: _463  and  _464
REMARK  193  A    between atoms: _466  and  _468
REMARK  194  A    between atoms: _468  and  _469
REMARK  195  A    between atoms: _468  and  _471
REMARK  196  A    between atoms: _471  and  _472
REMARK  197  A    between atoms: _478  and  _480
REMARK  198  A    between atoms: _480  and  _481
REMARK  199  A    between atoms: _480  and  _483
REMARK  200  A    between atoms: _483  and  _484
REMARK  201  A    between atoms: _487  and  _489
REMARK  202  A    between atoms: _489  and  _490
REMARK  203  A    between atoms: _489  and  _492
REMARK  204  A    between atoms: _495  and  _497
REMARK  205  A    between atoms: _497  and  _498
REMARK  206  A    between atoms: _497  and  _500
REMARK  207  A    between atoms: _500  and  _501
REMARK  208  A    between atoms: _504  and  _506
REMARK  209  A    between atoms: _506  and  _507
REMARK  210  A    between atoms: _506  and  _509
REMARK  211  A    between atoms: _509  and  _510
REMARK  212  A    between atoms: _514  and  _515
REMARK  213  A    between atoms: _520  and  _522
REMARK  214  A    between atoms: _522  and  _523
REMARK  215  A    between atoms: _522  and  _525
REMARK  216  A    between atoms: _528  and  _530
REMARK  217  A    between atoms: _530  and  _531
REMARK  218  A    between atoms: _530  and  _533
REMARK  219  A    between atoms: _533  and  _534
REMARK  220  A    between atoms: _539  and  _541
REMARK  221  A    between atoms: _541  and  _542
REMARK  222  A    between atoms: _541  and  _544
REMARK  223  A    between atoms: _544  and  _545
REMARK  224  A    between atoms: _548  and  _550
REMARK  225  A    between atoms: _550  and  _551
REMARK  226  A    between atoms: _550  and  _553
REMARK  227  A    between atoms: _553  and  _554
REMARK  228  A    between atoms: _557  and  _559
REMARK  229  A    between atoms: _559  and  _560
REMARK  230  A    between atoms: _562  and  _564
REMARK  231  A    between atoms: _564  and  _565
REMARK  232  A    between atoms: _564  and  _567
REMARK  233  A    between atoms: _567  and  _568
REMARK  234  A    between atoms: _568  and  _569
REMARK  235  A    between atoms: _569  and  _570
REMARK  236  A    between atoms: _579  and  _581
REMARK  237  A    between atoms: _581  and  _582
REMARK  238  A    between atoms: _581  and  _584
REMARK  239  A    between atoms: _584  and  _585
REMARK                            x       y       z     vdW  Elec       q    Type
REMARK                         _______ _______ _______ _____ _____    ______ ____
ROOT
ATOM      1  O   HOH     1       8.676  22.212  16.530  0.00  0.00    +0.000 OA
ENDROOT
TORSDOF 0
REMARK  Name = ../refined-set-2016/3nu5/3nu5_pocket.pdb
REMARK  239 active torsions:
REMARK  status: ('A' for Active; 'I' for Inactive)
REMARK    1  A    between atoms: _1  and  _3
REMARK    2  A    between atoms: _3  and  _4
REMARK    3  A    between atoms: _3  and  _6
REMARK    4  A    between atoms: _6  and  _7
REMARK    5  A    between atoms: _7  and  _8
REMARK    6  A    between atoms: _8  and  _9
REMARK    7  A    between atoms: _18  and  _20
REMARK    8  A    between atoms: _20  and  _21
REMARK    9  A    between atoms: _20  and  _23
REMARK   10  A    between atoms: _23  and  _24
REMARK   11  A    between atoms: _27  and  _29
REMARK   12  A    between atoms: _29  and  _30
REMARK   13  A    between atoms: _29  and  _32
REMARK   14  A    between atoms: _32  and  _33
REMARK   15  A    between atoms: _36  and  _38
REMARK   16  A    between atoms: _38  and  _39
REMARK   17  A    between atoms: _38  and  _41
REMARK   18  A    between atoms: _41  and  _42
REMARK   19  A    between atoms: _45  and  _47
REMARK   20  A    between atoms: _47  and  _48
REMARK   21  A    between atoms: _47  and  _50
REMARK   22  A    between atoms: _50  and  _51
REMARK   23  A    between atoms: _54  and  _56
REMARK   24  A    between atoms: _56  and  _57
REMARK   25  A    between atoms: _59  and  _61
REMARK   26  A    between atoms: _61  and  _62
REMARK   27  A    between atoms: _65  and  _67
REMARK   28  A    between atoms: _67  and  _68
REMARK   29  A    between atoms: _67  and  _70
REMARK   30  A    between atoms: _70  and  _71
REMARK   31  A    between atoms: _74  and  _76
REMARK   32  A    between atoms: _76  and  _77
REMARK   33  A    between atoms: _76  and  _79
REMARK   34  A    between atoms: _79  and  _80
REMARK   35  A    between atoms: _83  and  _85
REMARK   36  A    between atoms: _85  and  _86
REMARK   37  A    between atoms: _85  and  _88
REMARK   38  A    between atoms: _88  and  _89
REMARK   39  A    between atoms: _92  and  _94
REMARK   40  A    between atoms: _94  and  _95
REMARK   41  A    between atoms: _94  and  _97
REMARK   42  A    between atoms: _100  and  _102
REMARK   43  A    between atoms: _102  and  _103
REMARK   44  A    between atoms: _102  and  _105
REMARK   45  A    between atoms: _105  and  _106
REMARK   46  A    between atoms: _109  and  _111
REMARK   47  A    between atoms: _111  and  _112
REMARK   48  A    between atoms: _111  and  _114
REMARK   49  A    between atoms: _114  and  _115
REMARK   50  A    between atoms: _115  and  _116
REMARK   51  A    between atoms: _116  and  _117
REMARK   52  A    between atoms: _117  and  _118
REMARK   53  A    between atoms: _122  and  _124
REMARK   54  A    between atoms: _124  and  _125
REMARK   55  A    between atoms: _124  and  _127
REMARK   56  A    between atoms: _127  and  _128
REMARK   57  A    between atoms: _128  and  _129
REMARK   58  A    between atoms: _131  and  _133
REMARK   59  A    between atoms: _133  and  _134
REMARK   60  A    between atoms: _133  and  _136
REMARK   61  A    between atoms: _136  and  _137
REMARK   62  A    between atoms: _140  and  _142
REMARK   63  A    between atoms: _142  and  _143
REMARK   64  A    between atoms: _145  and  _147
REMARK   65  A    between atoms: _147  and  _148
REMARK   66  A    between atoms: _150  and  _152
REMARK   67  A    between atoms: _152  and  _153
REMARK   68  A    between atoms: _152  and  _155
REMARK   69  A    between atoms: _158  and  _160
REMARK   70  A    between atoms: _160  and  _161
REMARK   71  A    between atoms: _163  and  _165
REMARK   72  A    between atoms: _165  and  _166
REMARK   73  A    between atoms: _168  and  _170
REMARK   74  A    between atoms: _170  and  _171
REMARK   75  A    between atoms: _170  and  _173
REMARK   76  A    between atoms: _173  and  _174
REMARK   77  A    between atoms: _180  and  _182
REMARK   78  A    between atoms: _182  and  _183
REMARK   79  A    between atoms: _182  and  _185
REMARK   80  A    between atoms: _185  and  _186
REMARK   81  A    between atoms: _189  and  _191
REMARK   82  A    between atoms: _191  and  _192
REMARK   83  A    between atoms: _191  and  _194
REMARK   84  A    between atoms: _197  and  _199
REMARK   85  A    between atoms: _199  and  _200
REMARK   86  A    between atoms: _199  and  _202
REMARK   87  A    between atoms: _202  and  _203
REMARK   88  A    between atoms: _207  and  _208
REMARK   89  A    between atoms: _213  and  _215
REMARK   90  A    between atoms: _215  and  _216
REMARK   91  A    between atoms: _215  and  _218
REMARK   92  A    between atoms: _218  and  _219
REMARK   93  A    between atoms: _223  and  _224
REMARK   94  A    between atoms: _229  and  _231
REMARK   95  A    between atoms: _231  and  _232
REMARK   96  A    between atoms: _231  and  _234
REMARK   97  A    between atoms: _237  and  _239
REMARK   98  A    between atoms: _239  and  _240
REMARK   99  A    between atoms: _239  and  _242
REMARK  100  A    between atoms: _242  and  _243
REMARK  101  A    between atoms: _248  and  _250
REMARK  102  A    between atoms: _250  and  _251
REMARK  103  A    between atoms: _250  and  _253
REMARK  104  A    between atoms: _253  and  _254
REMARK  105  A    between atoms: _257  and  _259
REMARK  106  A    between atoms: _259  and  _260
REMARK  107  A    between atoms: _259  and  _262
REMARK  108  A    between atoms: _262  and  _263
REMARK  109  A    between atoms: _266  and  _268
REMARK  110  A    between atoms: _268  and  _269
REMARK  111  A    between atoms: _271  and  _273
REMARK  112  A    between atoms: _273  and  _274
REMARK  113  A    between atoms: _273  and  _276
REMARK  114  A    between atoms: _276  and  _277
REMARK  115  A    between atoms: _277  and  _278
REMARK  116  A    between atoms: _278  and  _279
REMARK  117  A    between atoms: _288  and  _290
REMARK  118  A    between atoms: _290  and  _291
REMARK  119  A    between atoms: _290  and  _293
REMARK  120  A    between atoms: _293  and  _294
REMARK  121  A    between atoms: _299  and  _301
REMARK  122  A    between atoms: _301  and  _302
REMARK  123  A    between atoms: _301  and  _304
REMARK  124  A    between atoms: _304  and  _305
REMARK  125  A    between atoms: _305  and  _306
REMARK  126  A    between atoms: _306  and  _307
REMARK  127  A    between atoms: _316  and  _318
REMARK  128  A    between atoms: _318  and  _319
REMARK  129  A    between atoms: _318  and  _321
REMARK  130  A    between atoms: _321  and  _322
REMARK  131  A    between atoms: _325  and  _327
REMARK  132  A    between atoms: _327  and  _328
REMARK  133  A    between atoms: _327  and  _330
REMARK  134  A    between atoms: _330  and  _331
REMARK  135  A    between atoms: _334  and  _336
REMARK  136  A    between atoms: _336  and  _337
REMARK  137  A    between atoms: _336  and  _339
REMARK  138  A    between atoms: _339  and  _340
REMARK  139  A    between atoms: _343  and  _345
REMARK  140  A    between atoms: _345  and  _346
REMARK  141  A    between atoms: _345  and  _348
REMARK  142  A    between atoms: _348  and  _349
REMARK  143  A    between atoms: _352  and  _354
REMARK  144  A    between atoms: _354  and  _355
REMARK  145  A    between atoms: _357  and  _359
REMARK  146  A    between atoms: _359  and  _360
REMARK  147  A    between atoms: _363  and  _365
REMARK  148  A    between atoms: _365  and  _366
REMARK  149  A    between atoms: _365  and  _368
REMARK  150  A    between atoms: _368  and  _369
REMARK  151  A    between atoms: _372  and  _374
REMARK  152  A    between atoms: _374  and  _375
REMARK  153  A    between atoms: _374  and  _377
REMARK  154  A    between atoms: _377  and  _378
REMARK  155  A    between atoms: _381  and  _383
REMARK  156  A    between atoms: _383  and  _384
REMARK  157  A    between atoms: _383  and  _386
REMARK  158  A    between atoms: _386  and  _387
REMARK  159  A    between atoms: _390  and  _392
REMARK  160  A    between atoms: _392  and  _393
REMARK  161  A    between atoms: _392  and  _395
REMARK  162  A    between atoms: _398  and  _400
REMARK  163  A    between atoms: _400  and  _401
REMARK  164  A    between atoms: _400  and  _403
REMARK  165  A    between atoms: _403  and  _404
REMARK  166  A    between atoms: _407  and  _409
REMARK  167  A    between atoms: _409  and  _410
REMARK  168  A    between atoms: _409  and  _412
REMARK  169  A    between atoms: _412  and  _413
REMARK  170  A    between atoms: _413  and  _414
REMARK  171  A    between atoms: _414  and  _415
REMARK  172  A    between atoms: _415  and  _416
REMARK  173  A    between atoms: _420  and  _422
REMARK  174  A    between atoms: _422  and  _423
REMARK  175  A    between atoms: _422  and  _425
REMARK  176  A    between atoms: _425  and  _426
REMARK  177  A    between atoms: _426  and  _427
REMARK  178  A    between atoms: _429  and  _431
REMARK  179  A    between atoms: _431  and  _432
REMARK  180  A    between atoms: _431  and  _434
REMARK  181  A    between atoms: _434  and  _435
REMARK  182  A    between atoms: _438  and  _440
REMARK  183  A    between atoms: _440  and  _441
REMARK  184  A    between atoms: _443  and  _445
REMARK  185  A    between atoms: _445  and  _446
REMARK  186  A    between atoms: _448  and  _450
REMARK  187  A    between atoms: _450  and  _451
REMARK  188  A    between atoms: _450  and  _453
REMARK  189  A    between atoms: _456  and  _458
REMARK  190  A    between atoms: _458  and  _459
REMARK  191  A    between atoms: _461  and  _463
REMARK  192  A    between atoms: _463  and  _464
REMARK  193  A    between atoms: _466  and  _468
REMARK  194  A    between atoms: _468  and  _469
REMARK  195  A    between atoms: _468  and  _471
REMARK  196  A    between atoms: _471  and  _472
REMARK  197  A    between atoms: _478  and  _480
REMARK  198  A    between atoms: _480  and  _481
REMARK  199  A    between atoms: _480  and  _483
REMARK  200  A    between atoms: _483  and  _484
REMARK  201  A    between atoms: _487  and  _489
REMARK  202  A    between atoms: _489  and  _490
REMARK  203  A    between atoms: _489  and  _492
REMARK  204  A    between atoms: _495  and  _497
REMARK  205  A    between atoms: _497  and  _498
REMARK  206  A    between atoms: _497  and  _500
REMARK  207  A    between atoms: _500  and  _501
REMARK  208  A    between atoms: _504  and  _506
REMARK  209  A    between atoms: _506  and  _507
REMARK  210  A    between atoms: _506  and  _509
REMARK  211  A    between atoms: _509  and  _510
REMARK  212  A    between atoms: _514  and  _515
REMARK  213  A    between atoms: _520  and  _522
REMARK  214  A    between atoms: _522  and  _523
REMARK  215  A    between atoms: _522  and  _525
REMARK  216  A    between atoms: _528  and  _530
REMARK  217  A    between atoms: _530  and  _531
REMARK  218  A    between atoms: _530  and  _533
REMARK  219  A    between atoms: _533  and  _534
REMARK  220  A    between atoms: _539  and  _541
REMARK  221  A    between atoms: _541  and  _542
REMARK  222  A    between atoms: _541  and  _544
REMARK  223  A    between atoms: _544  and  _545
REMARK  224  A    between atoms: _548  and  _550
REMARK  225  A    between atoms: _550  and  _551
REMARK  226  A    between atoms: _550  and  _553
REMARK  227  A    between atoms: _553  and  _554
REMARK  228  A    between atoms: _557  and  _559
REMARK  229  A    between atoms: _559  and  _560
REMARK  230  A    between atoms: _562  and  _564
REMARK  231  A    between atoms: _564  and  _565
REMARK  232  A    between atoms: _564  and  _567
REMARK  233  A    between atoms: _567  and  _568
REMARK  234  A    between atoms: _568  and  _569
REMARK  235  A    between atoms: _569  and  _570
REMARK  236  A    between atoms: _579  and  _581
REMARK  237  A    between atoms: _581  and  _582
REMARK  238  A    between atoms: _581  and  _584
REMARK  239  A    between atoms: _584  and  _585
REMARK                            x       y       z     vdW  Elec       q    Type
REMARK                         _______ _______ _______ _____ _____    ______ ____
ROOT
ATOM      1  O   HOH     1       4.208  19.053  22.589  0.00  0.00    +0.000 OA
ENDROOT
TORSDOF 0
REMARK  Name = ../refined-set-2016/3nu5/3nu5_pocket.pdb
REMARK  239 active torsions:
REMARK  status: ('A' for Active; 'I' for Inactive)
REMARK    1  A    between atoms: _1  and  _3
REMARK    2  A    between atoms: _3  and  _4
REMARK    3  A    between atoms: _3  and  _6
REMARK    4  A    between atoms: _6  and  _7
REMARK    5  A    between atoms: _7  and  _8
REMARK    6  A    between atoms: _8  and  _9
REMARK    7  A    between atoms: _18  and  _20
REMARK    8  A    between atoms: _20  and  _21
REMARK    9  A    between atoms: _20  and  _23
REMARK   10  A    between atoms: _23  and  _24
REMARK   11  A    between atoms: _27  and  _29
REMARK   12  A    between atoms: _29  and  _30
REMARK   13  A    between atoms: _29  and  _32
REMARK   14  A    between atoms: _32  and  _33
REMARK   15  A    between atoms: _36  and  _38
REMARK   16  A    between atoms: _38  and  _39
REMARK   17  A    between atoms: _38  and  _41
REMARK   18  A    between atoms: _41  and  _42
REMARK   19  A    between atoms: _45  and  _47
REMARK   20  A    between atoms: _47  and  _48
REMARK   21  A    between atoms: _47  and  _50
REMARK   22  A    between atoms: _50  and  _51
REMARK   23  A    between atoms: _54  and  _56
REMARK   24  A    between atoms: _56  and  _57
REMARK   25  A    between atoms: _59  and  _61
REMARK   26  A    between atoms: _61  and  _62
REMARK   27  A    between atoms: _65  and  _67
REMARK   28  A    between atoms: _67  and  _68
REMARK   29  A    between atoms: _67  and  _70
REMARK   30  A    between atoms: _70  and  _71
REMARK   31  A    between atoms: _74  and  _76
REMARK   32  A    between atoms: _76  and  _77
REMARK   33  A    between atoms: _76  and  _79
REMARK   34  A    between atoms: _79  and  _80
REMARK   35  A    between atoms: _83  and  _85
REMARK   36  A    between atoms: _85  and  _86
REMARK   37  A    between atoms: _85  and  _88
REMARK   38  A    between atoms: _88  and  _89
REMARK   39  A    between atoms: _92  and  _94
REMARK   40  A    between atoms: _94  and  _95
REMARK   41  A    between atoms: _94  and  _97
REMARK   42  A    between atoms: _100  and  _102
REMARK   43  A    between atoms: _102  and  _103
REMARK   44  A    between atoms: _102  and  _105
REMARK   45  A    between atoms: _105  and  _106
REMARK   46  A    between atoms: _109  and  _111
REMARK   47  A    between atoms: _111  and  _112
REMARK   48  A    between atoms: _111  and  _114
REMARK   49  A    between atoms: _114  and  _115
REMARK   50  A    between atoms: _115  and  _116
REMARK   51  A    between atoms: _116  and  _117
REMARK   52  A    between atoms: _117  and  _118
REMARK   53  A    between atoms: _122  and  _124
REMARK   54  A    between atoms: _124  and  _125
REMARK   55  A    between atoms: _124  and  _127
REMARK   56  A    between atoms: _127  and  _128
REMARK   57  A    between atoms: _128  and  _129
REMARK   58  A    between atoms: _131  and  _133
REMARK   59  A    between atoms: _133  and  _134
REMARK   60  A    between atoms: _133  and  _136
REMARK   61  A    between atoms: _136  and  _137
REMARK   62  A    between atoms: _140  and  _142
REMARK   63  A    between atoms: _142  and  _143
REMARK   64  A    between atoms: _145  and  _147
REMARK   65  A    between atoms: _147  and  _148
REMARK   66  A    between atoms: _150  and  _152
REMARK   67  A    between atoms: _152  and  _153
REMARK   68  A    between atoms: _152  and  _155
REMARK   69  A    between atoms: _158  and  _160
REMARK   70  A    between atoms: _160  and  _161
REMARK   71  A    between atoms: _163  and  _165
REMARK   72  A    between atoms: _165  and  _166
REMARK   73  A    between atoms: _168  and  _170
REMARK   74  A    between atoms: _170  and  _171
REMARK   75  A    between atoms: _170  and  _173
REMARK   76  A    between atoms: _173  and  _174
REMARK   77  A    between atoms: _180  and  _182
REMARK   78  A    between atoms: _182  and  _183
REMARK   79  A    between atoms: _182  and  _185
REMARK   80  A    between atoms: _185  and  _186
REMARK   81  A    between atoms: _189  and  _191
REMARK   82  A    between atoms: _191  and  _192
REMARK   83  A    between atoms: _191  and  _194
REMARK   84  A    between atoms: _197  and  _199
REMARK   85  A    between atoms: _199  and  _200
REMARK   86  A    between atoms: _199  and  _202
REMARK   87  A    between atoms: _202  and  _203
REMARK   88  A    between atoms: _207  and  _208
REMARK   89  A    between atoms: _213  and  _215
REMARK   90  A    between atoms: _215  and  _216
REMARK   91  A    between atoms: _215  and  _218
REMARK   92  A    between atoms: _218  and  _219
REMARK   93  A    between atoms: _223  and  _224
REMARK   94  A    between atoms: _229  and  _231
REMARK   95  A    between atoms: _231  and  _232
REMARK   96  A    between atoms: _231  and  _234
REMARK   97  A    between atoms: _237  and  _239
REMARK   98  A    between atoms: _239  and  _240
REMARK   99  A    between atoms: _239  and  _242
REMARK  100  A    between atoms: _242  and  _243
REMARK  101  A    between atoms: _248  and  _250
REMARK  102  A    between atoms: _250  and  _251
REMARK  103  A    between atoms: _250  and  _253
REMARK  104  A    between atoms: _253  and  _254
REMARK  105  A    between atoms: _257  and  _259
REMARK  106  A    between atoms: _259  and  _260
REMARK  107  A    between atoms: _259  and  _262
REMARK  108  A    between atoms: _262  and  _263
REMARK  109  A    between atoms: _266  and  _268
REMARK  110  A    between atoms: _268  and  _269
REMARK  111  A    between atoms: _271  and  _273
REMARK  112  A    between atoms: _273  and  _274
REMARK  113  A    between atoms: _273  and  _276
REMARK  114  A    between atoms: _276  and  _277
REMARK  115  A    between atoms: _277  and  _278
REMARK  116  A    between atoms: _278  and  _279
REMARK  117  A    between atoms: _288  and  _290
REMARK  118  A    between atoms: _290  and  _291
REMARK  119  A    between atoms: _290  and  _293
REMARK  120  A    between atoms: _293  and  _294
REMARK  121  A    between atoms: _299  and  _301
REMARK  122  A    between atoms: _301  and  _302
REMARK  123  A    between atoms: _301  and  _304
REMARK  124  A    between atoms: _304  and  _305
REMARK  125  A    between atoms: _305  and  _306
REMARK  126  A    between atoms: _306  and  _307
REMARK  127  A    between atoms: _316  and  _318
REMARK  128  A    between atoms: _318  and  _319
REMARK  129  A    between atoms: _318  and  _321
REMARK  130  A    between atoms: _321  and  _322
REMARK  131  A    between atoms: _325  and  _327
REMARK  132  A    between atoms: _327  and  _328
REMARK  133  A    between atoms: _327  and  _330
REMARK  134  A    between atoms: _330  and  _331
REMARK  135  A    between atoms: _334  and  _336
REMARK  136  A    between atoms: _336  and  _337
REMARK  137  A    between atoms: _336  and  _339
REMARK  138  A    between atoms: _339  and  _340
REMARK  139  A    between atoms: _343  and  _345
REMARK  140  A    between atoms: _345  and  _346
REMARK  141  A    between atoms: _345  and  _348
REMARK  142  A    between atoms: _348  and  _349
REMARK  143  A    between atoms: _352  and  _354
REMARK  144  A    between atoms: _354  and  _355
REMARK  145  A    between atoms: _357  and  _359
REMARK  146  A    between atoms: _359  and  _360
REMARK  147  A    between atoms: _363  and  _365
REMARK  148  A    between atoms: _365  and  _366
REMARK  149  A    between atoms: _365  and  _368
REMARK  150  A    between atoms: _368  and  _369
REMARK  151  A    between atoms: _372  and  _374
REMARK  152  A    between atoms: _374  and  _375
REMARK  153  A    between atoms: _374  and  _377
REMARK  154  A    between atoms: _377  and  _378
REMARK  155  A    between atoms: _381  and  _383
REMARK  156  A    between atoms: _383  and  _384
REMARK  157  A    between atoms: _383  and  _386
REMARK  158  A    between atoms: _386  and  _387
REMARK  159  A    between atoms: _390  and  _392
REMARK  160  A    between atoms: _392  and  _393
REMARK  161  A    between atoms: _392  and  _395
REMARK  162  A    between atoms: _398  and  _400
REMARK  163  A    between atoms: _400  and  _401
REMARK  164  A    between atoms: _400  and  _403
REMARK  165  A    between atoms: _403  and  _404
REMARK  166  A    between atoms: _407  and  _409
REMARK  167  A    between atoms: _409  and  _410
REMARK  168  A    between atoms: _409  and  _412
REMARK  169  A    between atoms: _412  and  _413
REMARK  170  A    between atoms: _413  and  _414
REMARK  171  A    between atoms: _414  and  _415
REMARK  172  A    between atoms: _415  and  _416
REMARK  173  A    between atoms: _420  and  _422
REMARK  174  A    between atoms: _422  and  _423
REMARK  175  A    between atoms: _422  and  _425
REMARK  176  A    between atoms: _425  and  _426
REMARK  177  A    between atoms: _426  and  _427
REMARK  178  A    between atoms: _429  and  _431
REMARK  179  A    between atoms: _431  and  _432
REMARK  180  A    between atoms: _431  and  _434
REMARK  181  A    between atoms: _434  and  _435
REMARK  182  A    between atoms: _438  and  _440
REMARK  183  A    between atoms: _440  and  _441
REMARK  184  A    between atoms: _443  and  _445
REMARK  185  A    between atoms: _445  and  _446
REMARK  186  A    between atoms: _448  and  _450
REMARK  187  A    between atoms: _450  and  _451
REMARK  188  A    between atoms: _450  and  _453
REMARK  189  A    between atoms: _456  and  _458
REMARK  190  A    between atoms: _458  and  _459
REMARK  191  A    between atoms: _461  and  _463
REMARK  192  A    between atoms: _463  and  _464
REMARK  193  A    between atoms: _466  and  _468
REMARK  194  A    between atoms: _468  and  _469
REMARK  195  A    between atoms: _468  and  _471
REMARK  196  A    between atoms: _471  and  _472
REMARK  197  A    between atoms: _478  and  _480
REMARK  198  A    between atoms: _480  and  _481
REMARK  199  A    between atoms: _480  and  _483
REMARK  200  A    between atoms: _483  and  _484
REMARK  201  A    between atoms: _487  and  _489
REMARK  202  A    between atoms: _489  and  _490
REMARK  203  A    between atoms: _489  and  _492
REMARK  204  A    between atoms: _495  and  _497
REMARK  205  A    between atoms: _497  and  _498
REMARK  206  A    between atoms: _497  and  _500
REMARK  207  A    between atoms: _500  and  _501
REMARK  208  A    between atoms: _504  and  _506
REMARK  209  A    between atoms: _506  and  _507
REMARK  210  A    between atoms: _506  and  _509
REMARK  211  A    between atoms: _509  and  _510
REMARK  212  A    between atoms: _514  and  _515
REMARK  213  A    between atoms: _520  and  _522
REMARK  214  A    between atoms: _522  and  _523
REMARK  215  A    between atoms: _522  and  _525
REMARK  216  A    between atoms: _528  and  _530
REMARK  217  A    between atoms: _530  and  _531
REMARK  218  A    between atoms: _530  and  _533
REMARK  219  A    between atoms: _533  and  _534
REMARK  220  A    between atoms: _539  and  _541
REMARK  221  A    between atoms: _541  and  _542
REMARK  222  A    between atoms: _541  and  _544
REMARK  223  A    between atoms: _544  and  _545
REMARK  224  A    between atoms: _548  and  _550
REMARK  225  A    between atoms: _550  and  _551
REMARK  226  A    between atoms: _550  and  _553
REMARK  227  A    between atoms: _553  and  _554
REMARK  228  A    between atoms: _557  and  _559
REMARK  229  A    between atoms: _559  and  _560
REMARK  230  A    between atoms: _562  and  _564
REMARK  231  A    between atoms: _564  and  _565
REMARK  232  A    between atoms: _564  and  _567
REMARK  233  A    between atoms: _567  and  _568
REMARK  234  A    between atoms: _568  and  _569
REMARK  235  A    between atoms: _569  and  _570
REMARK  236  A    between atoms: _579  and  _581
REMARK  237  A    between atoms: _581  and  _582
REMARK  238  A    between atoms: _581  and  _584
REMARK  239  A    between atoms: _584  and  _585
REMARK                            x       y       z     vdW  Elec       q    Type
REMARK                         _______ _______ _______ _____ _____    ______ ____
ROOT
ATOM      1  O   HOH     1      15.362  15.079   9.527  0.00  0.00    +0.000 OA
ENDROOT
TORSDOF 0
REMARK  Name = ../refined-set-2016/3nu5/3nu5_pocket.pdb
REMARK  239 active torsions:
REMARK  status: ('A' for Active; 'I' for Inactive)
REMARK    1  A    between atoms: _1  and  _3
REMARK    2  A    between atoms: _3  and  _4
REMARK    3  A    between atoms: _3  and  _6
REMARK    4  A    between atoms: _6  and  _7
REMARK    5  A    between atoms: _7  and  _8
REMARK    6  A    between atoms: _8  and  _9
REMARK    7  A    between atoms: _18  and  _20
REMARK    8  A    between atoms: _20  and  _21
REMARK    9  A    between atoms: _20  and  _23
REMARK   10  A    between atoms: _23  and  _24
REMARK   11  A    between atoms: _27  and  _29
REMARK   12  A    between atoms: _29  and  _30
REMARK   13  A    between atoms: _29  and  _32
REMARK   14  A    between atoms: _32  and  _33
REMARK   15  A    between atoms: _36  and  _38
REMARK   16  A    between atoms: _38  and  _39
REMARK   17  A    between atoms: _38  and  _41
REMARK   18  A    between atoms: _41  and  _42
REMARK   19  A    between atoms: _45  and  _47
REMARK   20  A    between atoms: _47  and  _48
REMARK   21  A    between atoms: _47  and  _50
REMARK   22  A    between atoms: _50  and  _51
REMARK   23  A    between atoms: _54  and  _56
REMARK   24  A    between atoms: _56  and  _57
REMARK   25  A    between atoms: _59  and  _61
REMARK   26  A    between atoms: _61  and  _62
REMARK   27  A    between atoms: _65  and  _67
REMARK   28  A    between atoms: _67  and  _68
REMARK   29  A    between atoms: _67  and  _70
REMARK   30  A    between atoms: _70  and  _71
REMARK   31  A    between atoms: _74  and  _76
REMARK   32  A    between atoms: _76  and  _77
REMARK   33  A    between atoms: _76  and  _79
REMARK   34  A    between atoms: _79  and  _80
REMARK   35  A    between atoms: _83  and  _85
REMARK   36  A    between atoms: _85  and  _86
REMARK   37  A    between atoms: _85  and  _88
REMARK   38  A    between atoms: _88  and  _89
REMARK   39  A    between atoms: _92  and  _94
REMARK   40  A    between atoms: _94  and  _95
REMARK   41  A    between atoms: _94  and  _97
REMARK   42  A    between atoms: _100  and  _102
REMARK   43  A    between atoms: _102  and  _103
REMARK   44  A    between atoms: _102  and  _105
REMARK   45  A    between atoms: _105  and  _106
REMARK   46  A    between atoms: _109  and  _111
REMARK   47  A    between atoms: _111  and  _112
REMARK   48  A    between atoms: _111  and  _114
REMARK   49  A    between atoms: _114  and  _115
REMARK   50  A    between atoms: _115  and  _116
REMARK   51  A    between atoms: _116  and  _117
REMARK   52  A    between atoms: _117  and  _118
REMARK   53  A    between atoms: _122  and  _124
REMARK   54  A    between atoms: _124  and  _125
REMARK   55  A    between atoms: _124  and  _127
REMARK   56  A    between atoms: _127  and  _128
REMARK   57  A    between atoms: _128  and  _129
REMARK   58  A    between atoms: _131  and  _133
REMARK   59  A    between atoms: _133  and  _134
REMARK   60  A    between atoms: _133  and  _136
REMARK   61  A    between atoms: _136  and  _137
REMARK   62  A    between atoms: _140  and  _142
REMARK   63  A    between atoms: _142  and  _143
REMARK   64  A    between atoms: _145  and  _147
REMARK   65  A    between atoms: _147  and  _148
REMARK   66  A    between atoms: _150  and  _152
REMARK   67  A    between atoms: _152  and  _153
REMARK   68  A    between atoms: _152  and  _155
REMARK   69  A    between atoms: _158  and  _160
REMARK   70  A    between atoms: _160  and  _161
REMARK   71  A    between atoms: _163  and  _165
REMARK   72  A    between atoms: _165  and  _166
REMARK   73  A    between atoms: _168  and  _170
REMARK   74  A    between atoms: _170  and  _171
REMARK   75  A    between atoms: _170  and  _173
REMARK   76  A    between atoms: _173  and  _174
REMARK   77  A    between atoms: _180  and  _182
REMARK   78  A    between atoms: _182  and  _183
REMARK   79  A    between atoms: _182  and  _185
REMARK   80  A    between atoms: _185  and  _186
REMARK   81  A    between atoms: _189  and  _191
REMARK   82  A    between atoms: _191  and  _192
REMARK   83  A    between atoms: _191  and  _194
REMARK   84  A    between atoms: _197  and  _199
REMARK   85  A    between atoms: _199  and  _200
REMARK   86  A    between atoms: _199  and  _202
REMARK   87  A    between atoms: _202  and  _203
REMARK   88  A    between atoms: _207  and  _208
REMARK   89  A    between atoms: _213  and  _215
REMARK   90  A    between atoms: _215  and  _216
REMARK   91  A    between atoms: _215  and  _218
REMARK   92  A    between atoms: _218  and  _219
REMARK   93  A    between atoms: _223  and  _224
REMARK   94  A    between atoms: _229  and  _231
REMARK   95  A    between atoms: _231  and  _232
REMARK   96  A    between atoms: _231  and  _234
REMARK   97  A    between atoms: _237  and  _239
REMARK   98  A    between atoms: _239  and  _240
REMARK   99  A    between atoms: _239  and  _242
REMARK  100  A    between atoms: _242  and  _243
REMARK  101  A    between atoms: _248  and  _250
REMARK  102  A    between atoms: _250  and  _251
REMARK  103  A    between atoms: _250  and  _253
REMARK  104  A    between atoms: _253  and  _254
REMARK  105  A    between atoms: _257  and  _259
REMARK  106  A    between atoms: _259  and  _260
REMARK  107  A    between atoms: _259  and  _262
REMARK  108  A    between atoms: _262  and  _263
REMARK  109  A    between atoms: _266  and  _268
REMARK  110  A    between atoms: _268  and  _269
REMARK  111  A    between atoms: _271  and  _273
REMARK  112  A    between atoms: _273  and  _274
REMARK  113  A    between atoms: _273  and  _276
REMARK  114  A    between atoms: _276  and  _277
REMARK  115  A    between atoms: _277  and  _278
REMARK  116  A    between atoms: _278  and  _279
REMARK  117  A    between atoms: _288  and  _290
REMARK  118  A    between atoms: _290  and  _291
REMARK  119  A    between atoms: _290  and  _293
REMARK  120  A    between atoms: _293  and  _294
REMARK  121  A    between atoms: _299  and  _301
REMARK  122  A    between atoms: _301  and  _302
REMARK  123  A    between atoms: _301  and  _304
REMARK  124  A    between atoms: _304  and  _305
REMARK  125  A    between atoms: _305  and  _306
REMARK  126  A    between atoms: _306  and  _307
REMARK  127  A    between atoms: _316  and  _318
REMARK  128  A    between atoms: _318  and  _319
REMARK  129  A    between atoms: _318  and  _321
REMARK  130  A    between atoms: _321  and  _322
REMARK  131  A    between atoms: _325  and  _327
REMARK  132  A    between atoms: _327  and  _328
REMARK  133  A    between atoms: _327  and  _330
REMARK  134  A    between atoms: _330  and  _331
REMARK  135  A    between atoms: _334  and  _336
REMARK  136  A    between atoms: _336  and  _337
REMARK  137  A    between atoms: _336  and  _339
REMARK  138  A    between atoms: _339  and  _340
REMARK  139  A    between atoms: _343  and  _345
REMARK  140  A    between atoms: _345  and  _346
REMARK  141  A    between atoms: _345  and  _348
REMARK  142  A    between atoms: _348  and  _349
REMARK  143  A    between atoms: _352  and  _354
REMARK  144  A    between atoms: _354  and  _355
REMARK  145  A    between atoms: _357  and  _359
REMARK  146  A    between atoms: _359  and  _360
REMARK  147  A    between atoms: _363  and  _365
REMARK  148  A    between atoms: _365  and  _366
REMARK  149  A    between atoms: _365  and  _368
REMARK  150  A    between atoms: _368  and  _369
REMARK  151  A    between atoms: _372  and  _374
REMARK  152  A    between atoms: _374  and  _375
REMARK  153  A    between atoms: _374  and  _377
REMARK  154  A    between atoms: _377  and  _378
REMARK  155  A    between atoms: _381  and  _383
REMARK  156  A    between atoms: _383  and  _384
REMARK  157  A    between atoms: _383  and  _386
REMARK  158  A    between atoms: _386  and  _387
REMARK  159  A    between atoms: _390  and  _392
REMARK  160  A    between atoms: _392  and  _393
REMARK  161  A    between atoms: _392  and  _395
REMARK  162  A    between atoms: _398  and  _400
REMARK  163  A    between atoms: _400  and  _401
REMARK  164  A    between atoms: _400  and  _403
REMARK  165  A    between atoms: _403  and  _404
REMARK  166  A    between atoms: _407  and  _409
REMARK  167  A    between atoms: _409  and  _410
REMARK  168  A    between atoms: _409  and  _412
REMARK  169  A    between atoms: _412  and  _413
REMARK  170  A    between atoms: _413  and  _414
REMARK  171  A    between atoms: _414  and  _415
REMARK  172  A    between atoms: _415  and  _416
REMARK  173  A    between atoms: _420  and  _422
REMARK  174  A    between atoms: _422  and  _423
REMARK  175  A    between atoms: _422  and  _425
REMARK  176  A    between atoms: _425  and  _426
REMARK  177  A    between atoms: _426  and  _427
REMARK  178  A    between atoms: _429  and  _431
REMARK  179  A    between atoms: _431  and  _432
REMARK  180  A    between atoms: _431  and  _434
REMARK  181  A    between atoms: _434  and  _435
REMARK  182  A    between atoms: _438  and  _440
REMARK  183  A    between atoms: _440  and  _441
REMARK  184  A    between atoms: _443  and  _445
REMARK  185  A    between atoms: _445  and  _446
REMARK  186  A    between atoms: _448  and  _450
REMARK  187  A    between atoms: _450  and  _451
REMARK  188  A    between atoms: _450  and  _453
REMARK  189  A    between atoms: _456  and  _458
REMARK  190  A    between atoms: _458  and  _459
REMARK  191  A    between atoms: _461  and  _463
REMARK  192  A    between atoms: _463  and  _464
REMARK  193  A    between atoms: _466  and  _468
REMARK  194  A    between atoms: _468  and  _469
REMARK  195  A    between atoms: _468  and  _471
REMARK  196  A    between atoms: _471  and  _472
REMARK  197  A    between atoms: _478  and  _480
REMARK  198  A    between atoms: _480  and  _481
REMARK  199  A    between atoms: _480  and  _483
REMARK  200  A    between atoms: _483  and  _484
REMARK  201  A    between atoms: _487  and  _489
REMARK  202  A    between atoms: _489  and  _490
REMARK  203  A    between atoms: _489  and  _492
REMARK  204  A    between atoms: _495  and  _497
REMARK  205  A    between atoms: _497  and  _498
REMARK  206  A    between atoms: _497  and  _500
REMARK  207  A    between atoms: _500  and  _501
REMARK  208  A    between atoms: _504  and  _506
REMARK  209  A    between atoms: _506  and  _507
REMARK  210  A    between atoms: _506  and  _509
REMARK  211  A    between atoms: _509  and  _510
REMARK  212  A    between atoms: _514  and  _515
REMARK  213  A    between atoms: _520  and  _522
REMARK  214  A    between atoms: _522  and  _523
REMARK  215  A    between atoms: _522  and  _525
REMARK  216  A    between atoms: _528  and  _530
REMARK  217  A    between atoms: _530  and  _531
REMARK  218  A    between atoms: _530  and  _533
REMARK  219  A    between atoms: _533  and  _534
REMARK  220  A    between atoms: _539  and  _541
REMARK  221  A    between atoms: _541  and  _542
REMARK  222  A    between atoms: _541  and  _544
REMARK  223  A    between atoms: _544  and  _545
REMARK  224  A    between atoms: _548  and  _550
REMARK  225  A    between atoms: _550  and  _551
REMARK  226  A    between atoms: _550  and  _553
REMARK  227  A    between atoms: _553  and  _554
REMARK  228  A    between atoms: _557  and  _559
REMARK  229  A    between atoms: _559  and  _560
REMARK  230  A    between atoms: _562  and  _564
REMARK  231  A    between atoms: _564  and  _565
REMARK  232  A    between atoms: _564  and  _567
REMARK  233  A    between atoms: _567  and  _568
REMARK  234  A    between atoms: _568  and  _569
REMARK  235  A    between atoms: _569  and  _570
REMARK  236  A    between atoms: _579  and  _581
REMARK  237  A    between atoms: _581  and  _582
REMARK  238  A    between atoms: _581  and  _584
REMARK  239  A    between atoms: _584  and  _585
REMARK                            x       y       z     vdW  Elec       q    Type
REMARK                         _______ _______ _______ _____ _____    ______ ____
ROOT
ATOM      1  O   HOH     1      18.849  17.648   8.474  0.00  0.00    +0.000 OA
ENDROOT
TORSDOF 0
REMARK  Name = ../refined-set-2016/3nu5/3nu5_pocket.pdb
REMARK  239 active torsions:
REMARK  status: ('A' for Active; 'I' for Inactive)
REMARK    1  A    between atoms: _1  and  _3
REMARK    2  A    between atoms: _3  and  _4
REMARK    3  A    between atoms: _3  and  _6
REMARK    4  A    between atoms: _6  and  _7
REMARK    5  A    between atoms: _7  and  _8
REMARK    6  A    between atoms: _8  and  _9
REMARK    7  A    between atoms: _18  and  _20
REMARK    8  A    between atoms: _20  and  _21
REMARK    9  A    between atoms: _20  and  _23
REMARK   10  A    between atoms: _23  and  _24
REMARK   11  A    between atoms: _27  and  _29
REMARK   12  A    between atoms: _29  and  _30
REMARK   13  A    between atoms: _29  and  _32
REMARK   14  A    between atoms: _32  and  _33
REMARK   15  A    between atoms: _36  and  _38
REMARK   16  A    between atoms: _38  and  _39
REMARK   17  A    between atoms: _38  and  _41
REMARK   18  A    between atoms: _41  and  _42
REMARK   19  A    between atoms: _45  and  _47
REMARK   20  A    between atoms: _47  and  _48
REMARK   21  A    between atoms: _47  and  _50
REMARK   22  A    between atoms: _50  and  _51
REMARK   23  A    between atoms: _54  and  _56
REMARK   24  A    between atoms: _56  and  _57
REMARK   25  A    between atoms: _59  and  _61
REMARK   26  A    between atoms: _61  and  _62
REMARK   27  A    between atoms: _65  and  _67
REMARK   28  A    between atoms: _67  and  _68
REMARK   29  A    between atoms: _67  and  _70
REMARK   30  A    between atoms: _70  and  _71
REMARK   31  A    between atoms: _74  and  _76
REMARK   32  A    between atoms: _76  and  _77
REMARK   33  A    between atoms: _76  and  _79
REMARK   34  A    between atoms: _79  and  _80
REMARK   35  A    between atoms: _83  and  _85
REMARK   36  A    between atoms: _85  and  _86
REMARK   37  A    between atoms: _85  and  _88
REMARK   38  A    between atoms: _88  and  _89
REMARK   39  A    between atoms: _92  and  _94
REMARK   40  A    between atoms: _94  and  _95
REMARK   41  A    between atoms: _94  and  _97
REMARK   42  A    between atoms: _100  and  _102
REMARK   43  A    between atoms: _102  and  _103
REMARK   44  A    between atoms: _102  and  _105
REMARK   45  A    between atoms: _105  and  _106
REMARK   46  A    between atoms: _109  and  _111
REMARK   47  A    between atoms: _111  and  _112
REMARK   48  A    between atoms: _111  and  _114
REMARK   49  A    between atoms: _114  and  _115
REMARK   50  A    between atoms: _115  and  _116
REMARK   51  A    between atoms: _116  and  _117
REMARK   52  A    between atoms: _117  and  _118
REMARK   53  A    between atoms: _122  and  _124
REMARK   54  A    between atoms: _124  and  _125
REMARK   55  A    between atoms: _124  and  _127
REMARK   56  A    between atoms: _127  and  _128
REMARK   57  A    between atoms: _128  and  _129
REMARK   58  A    between atoms: _131  and  _133
REMARK   59  A    between atoms: _133  and  _134
REMARK   60  A    between atoms: _133  and  _136
REMARK   61  A    between atoms: _136  and  _137
REMARK   62  A    between atoms: _140  and  _142
REMARK   63  A    between atoms: _142  and  _143
REMARK   64  A    between atoms: _145  and  _147
REMARK   65  A    between atoms: _147  and  _148
REMARK   66  A    between atoms: _150  and  _152
REMARK   67  A    between atoms: _152  and  _153
REMARK   68  A    between atoms: _152  and  _155
REMARK   69  A    between atoms: _158  and  _160
REMARK   70  A    between atoms: _160  and  _161
REMARK   71  A    between atoms: _163  and  _165
REMARK   72  A    between atoms: _165  and  _166
REMARK   73  A    between atoms: _168  and  _170
REMARK   74  A    between atoms: _170  and  _171
REMARK   75  A    between atoms: _170  and  _173
REMARK   76  A    between atoms: _173  and  _174
REMARK   77  A    between atoms: _180  and  _182
REMARK   78  A    between atoms: _182  and  _183
REMARK   79  A    between atoms: _182  and  _185
REMARK   80  A    between atoms: _185  and  _186
REMARK   81  A    between atoms: _189  and  _191
REMARK   82  A    between atoms: _191  and  _192
REMARK   83  A    between atoms: _191  and  _194
REMARK   84  A    between atoms: _197  and  _199
REMARK   85  A    between atoms: _199  and  _200
REMARK   86  A    between atoms: _199  and  _202
REMARK   87  A    between atoms: _202  and  _203
REMARK   88  A    between atoms: _207  and  _208
REMARK   89  A    between atoms: _213  and  _215
REMARK   90  A    between atoms: _215  and  _216
REMARK   91  A    between atoms: _215  and  _218
REMARK   92  A    between atoms: _218  and  _219
REMARK   93  A    between atoms: _223  and  _224
REMARK   94  A    between atoms: _229  and  _231
REMARK   95  A    between atoms: _231  and  _232
REMARK   96  A    between atoms: _231  and  _234
REMARK   97  A    between atoms: _237  and  _239
REMARK   98  A    between atoms: _239  and  _240
REMARK   99  A    between atoms: _239  and  _242
REMARK  100  A    between atoms: _242  and  _243
REMARK  101  A    between atoms: _248  and  _250
REMARK  102  A    between atoms: _250  and  _251
REMARK  103  A    between atoms: _250  and  _253
REMARK  104  A    between atoms: _253  and  _254
REMARK  105  A    between atoms: _257  and  _259
REMARK  106  A    between atoms: _259  and  _260
REMARK  107  A    between atoms: _259  and  _262
REMARK  108  A    between atoms: _262  and  _263
REMARK  109  A    between atoms: _266  and  _268
REMARK  110  A    between atoms: _268  and  _269
REMARK  111  A    between atoms: _271  and  _273
REMARK  112  A    between atoms: _273  and  _274
REMARK  113  A    between atoms: _273  and  _276
REMARK  114  A    between atoms: _276  and  _277
REMARK  115  A    between atoms: _277  and  _278
REMARK  116  A    between atoms: _278  and  _279
REMARK  117  A    between atoms: _288  and  _290
REMARK  118  A    between atoms: _290  and  _291
REMARK  119  A    between atoms: _290  and  _293
REMARK  120  A    between atoms: _293  and  _294
REMARK  121  A    between atoms: _299  and  _301
REMARK  122  A    between atoms: _301  and  _302
REMARK  123  A    between atoms: _301  and  _304
REMARK  124  A    between atoms: _304  and  _305
REMARK  125  A    between atoms: _305  and  _306
REMARK  126  A    between atoms: _306  and  _307
REMARK  127  A    between atoms: _316  and  _318
REMARK  128  A    between atoms: _318  and  _319
REMARK  129  A    between atoms: _318  and  _321
REMARK  130  A    between atoms: _321  and  _322
REMARK  131  A    between atoms: _325  and  _327
REMARK  132  A    between atoms: _327  and  _328
REMARK  133  A    between atoms: _327  and  _330
REMARK  134  A    between atoms: _330  and  _331
REMARK  135  A    between atoms: _334  and  _336
REMARK  136  A    between atoms: _336  and  _337
REMARK  137  A    between atoms: _336  and  _339
REMARK  138  A    between atoms: _339  and  _340
REMARK  139  A    between atoms: _343  and  _345
REMARK  140  A    between atoms: _345  and  _346
REMARK  141  A    between atoms: _345  and  _348
REMARK  142  A    between atoms: _348  and  _349
REMARK  143  A    between atoms: _352  and  _354
REMARK  144  A    between atoms: _354  and  _355
REMARK  145  A    between atoms: _357  and  _359
REMARK  146  A    between atoms: _359  and  _360
REMARK  147  A    between atoms: _363  and  _365
REMARK  148  A    between atoms: _365  and  _366
REMARK  149  A    between atoms: _365  and  _368
REMARK  150  A    between atoms: _368  and  _369
REMARK  151  A    between atoms: _372  and  _374
REMARK  152  A    between atoms: _374  and  _375
REMARK  153  A    between atoms: _374  and  _377
REMARK  154  A    between atoms: _377  and  _378
REMARK  155  A    between atoms: _381  and  _383
REMARK  156  A    between atoms: _383  and  _384
REMARK  157  A    between atoms: _383  and  _386
REMARK  158  A    between atoms: _386  and  _387
REMARK  159  A    between atoms: _390  and  _392
REMARK  160  A    between atoms: _392  and  _393
REMARK  161  A    between atoms: _392  and  _395
REMARK  162  A    between atoms: _398  and  _400
REMARK  163  A    between atoms: _400  and  _401
REMARK  164  A    between atoms: _400  and  _403
REMARK  165  A    between atoms: _403  and  _404
REMARK  166  A    between atoms: _407  and  _409
REMARK  167  A    between atoms: _409  and  _410
REMARK  168  A    between atoms: _409  and  _412
REMARK  169  A    between atoms: _412  and  _413
REMARK  170  A    between atoms: _413  and  _414
REMARK  171  A    between atoms: _414  and  _415
REMARK  172  A    between atoms: _415  and  _416
REMARK  173  A    between atoms: _420  and  _422
REMARK  174  A    between atoms: _422  and  _423
REMARK  175  A    between atoms: _422  and  _425
REMARK  176  A    between atoms: _425  and  _426
REMARK  177  A    between atoms: _426  and  _427
REMARK  178  A    between atoms: _429  and  _431
REMARK  179  A    between atoms: _431  and  _432
REMARK  180  A    between atoms: _431  and  _434
REMARK  181  A    between atoms: _434  and  _435
REMARK  182  A    between atoms: _438  and  _440
REMARK  183  A    between atoms: _440  and  _441
REMARK  184  A    between atoms: _443  and  _445
REMARK  185  A    between atoms: _445  and  _446
REMARK  186  A    between atoms: _448  and  _450
REMARK  187  A    between atoms: _450  and  _451
REMARK  188  A    between atoms: _450  and  _453
REMARK  189  A    between atoms: _456  and  _458
REMARK  190  A    between atoms: _458  and  _459
REMARK  191  A    between atoms: _461  and  _463
REMARK  192  A    between atoms: _463  and  _464
REMARK  193  A    between atoms: _466  and  _468
REMARK  194  A    between atoms: _468  and  _469
REMARK  195  A    between atoms: _468  and  _471
REMARK  196  A    between atoms: _471  and  _472
REMARK  197  A    between atoms: _478  and  _480
REMARK  198  A    between atoms: _480  and  _481
REMARK  199  A    between atoms: _480  and  _483
REMARK  200  A    between atoms: _483  and  _484
REMARK  201  A    between atoms: _487  and  _489
REMARK  202  A    between atoms: _489  and  _490
REMARK  203  A    between atoms: _489  and  _492
REMARK  204  A    between atoms: _495  and  _497
REMARK  205  A    between atoms: _497  and  _498
REMARK  206  A    between atoms: _497  and  _500
REMARK  207  A    between atoms: _500  and  _501
REMARK  208  A    between atoms: _504  and  _506
REMARK  209  A    between atoms: _506  and  _507
REMARK  210  A    between atoms: _506  and  _509
REMARK  211  A    between atoms: _509  and  _510
REMARK  212  A    between atoms: _514  and  _515
REMARK  213  A    between atoms: _520  and  _522
REMARK  214  A    between atoms: _522  and  _523
REMARK  215  A    between atoms: _522  and  _525
REMARK  216  A    between atoms: _528  and  _530
REMARK  217  A    between atoms: _530  and  _531
REMARK  218  A    between atoms: _530  and  _533
REMARK  219  A    between atoms: _533  and  _534
REMARK  220  A    between atoms: _539  and  _541
REMARK  221  A    between atoms: _541  and  _542
REMARK  222  A    between atoms: _541  and  _544
REMARK  223  A    between atoms: _544  and  _545
REMARK  224  A    between atoms: _548  and  _550
REMARK  225  A    between atoms: _550  and  _551
REMARK  226  A    between atoms: _550  and  _553
REMARK  227  A    between atoms: _553  and  _554
REMARK  228  A    between atoms: _557  and  _559
REMARK  229  A    between atoms: _559  and  _560
REMARK  230  A    between atoms: _562  and  _564
REMARK  231  A    between atoms: _564  and  _565
REMARK  232  A    between atoms: _564  and  _567
REMARK  233  A    between atoms: _567  and  _568
REMARK  234  A    between atoms: _568  and  _569
REMARK  235  A    between atoms: _569  and  _570
REMARK  236  A    between atoms: _579  and  _581
REMARK  237  A    between atoms: _581  and  _582
REMARK  238  A    between atoms: _581  and  _584
REMARK  239  A    between atoms: _584  and  _585
REMARK                            x       y       z     vdW  Elec       q    Type
REMARK                         _______ _______ _______ _____ _____    ______ ____
ROOT
ATOM      1  O   HOH     1      20.113  28.732  21.234  0.00  0.00    +0.000 OA
ENDROOT
TORSDOF 0
REMARK  Name = ../refined-set-2016/3nu5/3nu5_pocket.pdb
REMARK  239 active torsions:
REMARK  status: ('A' for Active; 'I' for Inactive)
REMARK    1  A    between atoms: _1  and  _3
REMARK    2  A    between atoms: _3  and  _4
REMARK    3  A    between atoms: _3  and  _6
REMARK    4  A    between atoms: _6  and  _7
REMARK    5  A    between atoms: _7  and  _8
REMARK    6  A    between atoms: _8  and  _9
REMARK    7  A    between atoms: _18  and  _20
REMARK    8  A    between atoms: _20  and  _21
REMARK    9  A    between atoms: _20  and  _23
REMARK   10  A    between atoms: _23  and  _24
REMARK   11  A    between atoms: _27  and  _29
REMARK   12  A    between atoms: _29  and  _30
REMARK   13  A    between atoms: _29  and  _32
REMARK   14  A    between atoms: _32  and  _33
REMARK   15  A    between atoms: _36  and  _38
REMARK   16  A    between atoms: _38  and  _39
REMARK   17  A    between atoms: _38  and  _41
REMARK   18  A    between atoms: _41  and  _42
REMARK   19  A    between atoms: _45  and  _47
REMARK   20  A    between atoms: _47  and  _48
REMARK   21  A    between atoms: _47  and  _50
REMARK   22  A    between atoms: _50  and  _51
REMARK   23  A    between atoms: _54  and  _56
REMARK   24  A    between atoms: _56  and  _57
REMARK   25  A    between atoms: _59  and  _61
REMARK   26  A    between atoms: _61  and  _62
REMARK   27  A    between atoms: _65  and  _67
REMARK   28  A    between atoms: _67  and  _68
REMARK   29  A    between atoms: _67  and  _70
REMARK   30  A    between atoms: _70  and  _71
REMARK   31  A    between atoms: _74  and  _76
REMARK   32  A    between atoms: _76  and  _77
REMARK   33  A    between atoms: _76  and  _79
REMARK   34  A    between atoms: _79  and  _80
REMARK   35  A    between atoms: _83  and  _85
REMARK   36  A    between atoms: _85  and  _86
REMARK   37  A    between atoms: _85  and  _88
REMARK   38  A    between atoms: _88  and  _89
REMARK   39  A    between atoms: _92  and  _94
REMARK   40  A    between atoms: _94  and  _95
REMARK   41  A    between atoms: _94  and  _97
REMARK   42  A    between atoms: _100  and  _102
REMARK   43  A    between atoms: _102  and  _103
REMARK   44  A    between atoms: _102  and  _105
REMARK   45  A    between atoms: _105  and  _106
REMARK   46  A    between atoms: _109  and  _111
REMARK   47  A    between atoms: _111  and  _112
REMARK   48  A    between atoms: _111  and  _114
REMARK   49  A    between atoms: _114  and  _115
REMARK   50  A    between atoms: _115  and  _116
REMARK   51  A    between atoms: _116  and  _117
REMARK   52  A    between atoms: _117  and  _118
REMARK   53  A    between atoms: _122  and  _124
REMARK   54  A    between atoms: _124  and  _125
REMARK   55  A    between atoms: _124  and  _127
REMARK   56  A    between atoms: _127  and  _128
REMARK   57  A    between atoms: _128  and  _129
REMARK   58  A    between atoms: _131  and  _133
REMARK   59  A    between atoms: _133  and  _134
REMARK   60  A    between atoms: _133  and  _136
REMARK   61  A    between atoms: _136  and  _137
REMARK   62  A    between atoms: _140  and  _142
REMARK   63  A    between atoms: _142  and  _143
REMARK   64  A    between atoms: _145  and  _147
REMARK   65  A    between atoms: _147  and  _148
REMARK   66  A    between atoms: _150  and  _152
REMARK   67  A    between atoms: _152  and  _153
REMARK   68  A    between atoms: _152  and  _155
REMARK   69  A    between atoms: _158  and  _160
REMARK   70  A    between atoms: _160  and  _161
REMARK   71  A    between atoms: _163  and  _165
REMARK   72  A    between atoms: _165  and  _166
REMARK   73  A    between atoms: _168  and  _170
REMARK   74  A    between atoms: _170  and  _171
REMARK   75  A    between atoms: _170  and  _173
REMARK   76  A    between atoms: _173  and  _174
REMARK   77  A    between atoms: _180  and  _182
REMARK   78  A    between atoms: _182  and  _183
REMARK   79  A    between atoms: _182  and  _185
REMARK   80  A    between atoms: _185  and  _186
REMARK   81  A    between atoms: _189  and  _191
REMARK   82  A    between atoms: _191  and  _192
REMARK   83  A    between atoms: _191  and  _194
REMARK   84  A    between atoms: _197  and  _199
REMARK   85  A    between atoms: _199  and  _200
REMARK   86  A    between atoms: _199  and  _202
REMARK   87  A    between atoms: _202  and  _203
REMARK   88  A    between atoms: _207  and  _208
REMARK   89  A    between atoms: _213  and  _215
REMARK   90  A    between atoms: _215  and  _216
REMARK   91  A    between atoms: _215  and  _218
REMARK   92  A    between atoms: _218  and  _219
REMARK   93  A    between atoms: _223  and  _224
REMARK   94  A    between atoms: _229  and  _231
REMARK   95  A    between atoms: _231  and  _232
REMARK   96  A    between atoms: _231  and  _234
REMARK   97  A    between atoms: _237  and  _239
REMARK   98  A    between atoms: _239  and  _240
REMARK   99  A    between atoms: _239  and  _242
REMARK  100  A    between atoms: _242  and  _243
REMARK  101  A    between atoms: _248  and  _250
REMARK  102  A    between atoms: _250  and  _251
REMARK  103  A    between atoms: _250  and  _253
REMARK  104  A    between atoms: _253  and  _254
REMARK  105  A    between atoms: _257  and  _259
REMARK  106  A    between atoms: _259  and  _260
REMARK  107  A    between atoms: _259  and  _262
REMARK  108  A    between atoms: _262  and  _263
REMARK  109  A    between atoms: _266  and  _268
REMARK  110  A    between atoms: _268  and  _269
REMARK  111  A    between atoms: _271  and  _273
REMARK  112  A    between atoms: _273  and  _274
REMARK  113  A    between atoms: _273  and  _276
REMARK  114  A    between atoms: _276  and  _277
REMARK  115  A    between atoms: _277  and  _278
REMARK  116  A    between atoms: _278  and  _279
REMARK  117  A    between atoms: _288  and  _290
REMARK  118  A    between atoms: _290  and  _291
REMARK  119  A    between atoms: _290  and  _293
REMARK  120  A    between atoms: _293  and  _294
REMARK  121  A    between atoms: _299  and  _301
REMARK  122  A    between atoms: _301  and  _302
REMARK  123  A    between atoms: _301  and  _304
REMARK  124  A    between atoms: _304  and  _305
REMARK  125  A    between atoms: _305  and  _306
REMARK  126  A    between atoms: _306  and  _307
REMARK  127  A    between atoms: _316  and  _318
REMARK  128  A    between atoms: _318  and  _319
REMARK  129  A    between atoms: _318  and  _321
REMARK  130  A    between atoms: _321  and  _322
REMARK  131  A    between atoms: _325  and  _327
REMARK  132  A    between atoms: _327  and  _328
REMARK  133  A    between atoms: _327  and  _330
REMARK  134  A    between atoms: _330  and  _331
REMARK  135  A    between atoms: _334  and  _336
REMARK  136  A    between atoms: _336  and  _337
REMARK  137  A    between atoms: _336  and  _339
REMARK  138  A    between atoms: _339  and  _340
REMARK  139  A    between atoms: _343  and  _345
REMARK  140  A    between atoms: _345  and  _346
REMARK  141  A    between atoms: _345  and  _348
REMARK  142  A    between atoms: _348  and  _349
REMARK  143  A    between atoms: _352  and  _354
REMARK  144  A    between atoms: _354  and  _355
REMARK  145  A    between atoms: _357  and  _359
REMARK  146  A    between atoms: _359  and  _360
REMARK  147  A    between atoms: _363  and  _365
REMARK  148  A    between atoms: _365  and  _366
REMARK  149  A    between atoms: _365  and  _368
REMARK  150  A    between atoms: _368  and  _369
REMARK  151  A    between atoms: _372  and  _374
REMARK  152  A    between atoms: _374  and  _375
REMARK  153  A    between atoms: _374  and  _377
REMARK  154  A    between atoms: _377  and  _378
REMARK  155  A    between atoms: _381  and  _383
REMARK  156  A    between atoms: _383  and  _384
REMARK  157  A    between atoms: _383  and  _386
REMARK  158  A    between atoms: _386  and  _387
REMARK  159  A    between atoms: _390  and  _392
REMARK  160  A    between atoms: _392  and  _393
REMARK  161  A    between atoms: _392  and  _395
REMARK  162  A    between atoms: _398  and  _400
REMARK  163  A    between atoms: _400  and  _401
REMARK  164  A    between atoms: _400  and  _403
REMARK  165  A    between atoms: _403  and  _404
REMARK  166  A    between atoms: _407  and  _409
REMARK  167  A    between atoms: _409  and  _410
REMARK  168  A    between atoms: _409  and  _412
REMARK  169  A    between atoms: _412  and  _413
REMARK  170  A    between atoms: _413  and  _414
REMARK  171  A    between atoms: _414  and  _415
REMARK  172  A    between atoms: _415  and  _416
REMARK  173  A    between atoms: _420  and  _422
REMARK  174  A    between atoms: _422  and  _423
REMARK  175  A    between atoms: _422  and  _425
REMARK  176  A    between atoms: _425  and  _426
REMARK  177  A    between atoms: _426  and  _427
REMARK  178  A    between atoms: _429  and  _431
REMARK  179  A    between atoms: _431  and  _432
REMARK  180  A    between atoms: _431  and  _434
REMARK  181  A    between atoms: _434  and  _435
REMARK  182  A    between atoms: _438  and  _440
REMARK  183  A    between atoms: _440  and  _441
REMARK  184  A    between atoms: _443  and  _445
REMARK  185  A    between atoms: _445  and  _446
REMARK  186  A    between atoms: _448  and  _450
REMARK  187  A    between atoms: _450  and  _451
REMARK  188  A    between atoms: _450  and  _453
REMARK  189  A    between atoms: _456  and  _458
REMARK  190  A    between atoms: _458  and  _459
REMARK  191  A    between atoms: _461  and  _463
REMARK  192  A    between atoms: _463  and  _464
REMARK  193  A    between atoms: _466  and  _468
REMARK  194  A    between atoms: _468  and  _469
REMARK  195  A    between atoms: _468  and  _471
REMARK  196  A    between atoms: _471  and  _472
REMARK  197  A    between atoms: _478  and  _480
REMARK  198  A    between atoms: _480  and  _481
REMARK  199  A    between atoms: _480  and  _483
REMARK  200  A    between atoms: _483  and  _484
REMARK  201  A    between atoms: _487  and  _489
REMARK  202  A    between atoms: _489  and  _490
REMARK  203  A    between atoms: _489  and  _492
REMARK  204  A    between atoms: _495  and  _497
REMARK  205  A    between atoms: _497  and  _498
REMARK  206  A    between atoms: _497  and  _500
REMARK  207  A    between atoms: _500  and  _501
REMARK  208  A    between atoms: _504  and  _506
REMARK  209  A    between atoms: _506  and  _507
REMARK  210  A    between atoms: _506  and  _509
REMARK  211  A    between atoms: _509  and  _510
REMARK  212  A    between atoms: _514  and  _515
REMARK  213  A    between atoms: _520  and  _522
REMARK  214  A    between atoms: _522  and  _523
REMARK  215  A    between atoms: _522  and  _525
REMARK  216  A    between atoms: _528  and  _530
REMARK  217  A    between atoms: _530  and  _531
REMARK  218  A    between atoms: _530  and  _533
REMARK  219  A    between atoms: _533  and  _534
REMARK  220  A    between atoms: _539  and  _541
REMARK  221  A    between atoms: _541  and  _542
REMARK  222  A    between atoms: _541  and  _544
REMARK  223  A    between atoms: _544  and  _545
REMARK  224  A    between atoms: _548  and  _550
REMARK  225  A    between atoms: _550  and  _551
REMARK  226  A    between atoms: _550  and  _553
REMARK  227  A    between atoms: _553  and  _554
REMARK  228  A    between atoms: _557  and  _559
REMARK  229  A    between atoms: _559  and  _560
REMARK  230  A    between atoms: _562  and  _564
REMARK  231  A    between atoms: _564  and  _565
REMARK  232  A    between atoms: _564  and  _567
REMARK  233  A    between atoms: _567  and  _568
REMARK  234  A    between atoms: _568  and  _569
REMARK  235  A    between atoms: _569  and  _570
REMARK  236  A    between atoms: _579  and  _581
REMARK  237  A    between atoms: _581  and  _582
REMARK  238  A    between atoms: _581  and  _584
REMARK  239  A    between atoms: _584  and  _585
REMARK                            x       y       z     vdW  Elec       q    Type
REMARK                         _______ _______ _______ _____ _____    ______ ____
ROOT
ATOM      1  O   HOH     1       6.834  15.972  25.152  0.00  0.00    +0.000 OA
ENDROOT
TORSDOF 0
REMARK  Name = ../refined-set-2016/3nu5/3nu5_pocket.pdb
REMARK  239 active torsions:
REMARK  status: ('A' for Active; 'I' for Inactive)
REMARK    1  A    between atoms: _1  and  _3
REMARK    2  A    between atoms: _3  and  _4
REMARK    3  A    between atoms: _3  and  _6
REMARK    4  A    between atoms: _6  and  _7
REMARK    5  A    between atoms: _7  and  _8
REMARK    6  A    between atoms: _8  and  _9
REMARK    7  A    between atoms: _18  and  _20
REMARK    8  A    between atoms: _20  and  _21
REMARK    9  A    between atoms: _20  and  _23
REMARK   10  A    between atoms: _23  and  _24
REMARK   11  A    between atoms: _27  and  _29
REMARK   12  A    between atoms: _29  and  _30
REMARK   13  A    between atoms: _29  and  _32
REMARK   14  A    between atoms: _32  and  _33
REMARK   15  A    between atoms: _36  and  _38
REMARK   16  A    between atoms: _38  and  _39
REMARK   17  A    between atoms: _38  and  _41
REMARK   18  A    between atoms: _41  and  _42
REMARK   19  A    between atoms: _45  and  _47
REMARK   20  A    between atoms: _47  and  _48
REMARK   21  A    between atoms: _47  and  _50
REMARK   22  A    between atoms: _50  and  _51
REMARK   23  A    between atoms: _54  and  _56
REMARK   24  A    between atoms: _56  and  _57
REMARK   25  A    between atoms: _59  and  _61
REMARK   26  A    between atoms: _61  and  _62
REMARK   27  A    between atoms: _65  and  _67
REMARK   28  A    between atoms: _67  and  _68
REMARK   29  A    between atoms: _67  and  _70
REMARK   30  A    between atoms: _70  and  _71
REMARK   31  A    between atoms: _74  and  _76
REMARK   32  A    between atoms: _76  and  _77
REMARK   33  A    between atoms: _76  and  _79
REMARK   34  A    between atoms: _79  and  _80
REMARK   35  A    between atoms: _83  and  _85
REMARK   36  A    between atoms: _85  and  _86
REMARK   37  A    between atoms: _85  and  _88
REMARK   38  A    between atoms: _88  and  _89
REMARK   39  A    between atoms: _92  and  _94
REMARK   40  A    between atoms: _94  and  _95
REMARK   41  A    between atoms: _94  and  _97
REMARK   42  A    between atoms: _100  and  _102
REMARK   43  A    between atoms: _102  and  _103
REMARK   44  A    between atoms: _102  and  _105
REMARK   45  A    between atoms: _105  and  _106
REMARK   46  A    between atoms: _109  and  _111
REMARK   47  A    between atoms: _111  and  _112
REMARK   48  A    between atoms: _111  and  _114
REMARK   49  A    between atoms: _114  and  _115
REMARK   50  A    between atoms: _115  and  _116
REMARK   51  A    between atoms: _116  and  _117
REMARK   52  A    between atoms: _117  and  _118
REMARK   53  A    between atoms: _122  and  _124
REMARK   54  A    between atoms: _124  and  _125
REMARK   55  A    between atoms: _124  and  _127
REMARK   56  A    between atoms: _127  and  _128
REMARK   57  A    between atoms: _128  and  _129
REMARK   58  A    between atoms: _131  and  _133
REMARK   59  A    between atoms: _133  and  _134
REMARK   60  A    between atoms: _133  and  _136
REMARK   61  A    between atoms: _136  and  _137
REMARK   62  A    between atoms: _140  and  _142
REMARK   63  A    between atoms: _142  and  _143
REMARK   64  A    between atoms: _145  and  _147
REMARK   65  A    between atoms: _147  and  _148
REMARK   66  A    between atoms: _150  and  _152
REMARK   67  A    between atoms: _152  and  _153
REMARK   68  A    between atoms: _152  and  _155
REMARK   69  A    between atoms: _158  and  _160
REMARK   70  A    between atoms: _160  and  _161
REMARK   71  A    between atoms: _163  and  _165
REMARK   72  A    between atoms: _165  and  _166
REMARK   73  A    between atoms: _168  and  _170
REMARK   74  A    between atoms: _170  and  _171
REMARK   75  A    between atoms: _170  and  _173
REMARK   76  A    between atoms: _173  and  _174
REMARK   77  A    between atoms: _180  and  _182
REMARK   78  A    between atoms: _182  and  _183
REMARK   79  A    between atoms: _182  and  _185
REMARK   80  A    between atoms: _185  and  _186
REMARK   81  A    between atoms: _189  and  _191
REMARK   82  A    between atoms: _191  and  _192
REMARK   83  A    between atoms: _191  and  _194
REMARK   84  A    between atoms: _197  and  _199
REMARK   85  A    between atoms: _199  and  _200
REMARK   86  A    between atoms: _199  and  _202
REMARK   87  A    between atoms: _202  and  _203
REMARK   88  A    between atoms: _207  and  _208
REMARK   89  A    between atoms: _213  and  _215
REMARK   90  A    between atoms: _215  and  _216
REMARK   91  A    between atoms: _215  and  _218
REMARK   92  A    between atoms: _218  and  _219
REMARK   93  A    between atoms: _223  and  _224
REMARK   94  A    between atoms: _229  and  _231
REMARK   95  A    between atoms: _231  and  _232
REMARK   96  A    between atoms: _231  and  _234
REMARK   97  A    between atoms: _237  and  _239
REMARK   98  A    between atoms: _239  and  _240
REMARK   99  A    between atoms: _239  and  _242
REMARK  100  A    between atoms: _242  and  _243
REMARK  101  A    between atoms: _248  and  _250
REMARK  102  A    between atoms: _250  and  _251
REMARK  103  A    between atoms: _250  and  _253
REMARK  104  A    between atoms: _253  and  _254
REMARK  105  A    between atoms: _257  and  _259
REMARK  106  A    between atoms: _259  and  _260
REMARK  107  A    between atoms: _259  and  _262
REMARK  108  A    between atoms: _262  and  _263
REMARK  109  A    between atoms: _266  and  _268
REMARK  110  A    between atoms: _268  and  _269
REMARK  111  A    between atoms: _271  and  _273
REMARK  112  A    between atoms: _273  and  _274
REMARK  113  A    between atoms: _273  and  _276
REMARK  114  A    between atoms: _276  and  _277
REMARK  115  A    between atoms: _277  and  _278
REMARK  116  A    between atoms: _278  and  _279
REMARK  117  A    between atoms: _288  and  _290
REMARK  118  A    between atoms: _290  and  _291
REMARK  119  A    between atoms: _290  and  _293
REMARK  120  A    between atoms: _293  and  _294
REMARK  121  A    between atoms: _299  and  _301
REMARK  122  A    between atoms: _301  and  _302
REMARK  123  A    between atoms: _301  and  _304
REMARK  124  A    between atoms: _304  and  _305
REMARK  125  A    between atoms: _305  and  _306
REMARK  126  A    between atoms: _306  and  _307
REMARK  127  A    between atoms: _316  and  _318
REMARK  128  A    between atoms: _318  and  _319
REMARK  129  A    between atoms: _318  and  _321
REMARK  130  A    between atoms: _321  and  _322
REMARK  131  A    between atoms: _325  and  _327
REMARK  132  A    between atoms: _327  and  _328
REMARK  133  A    between atoms: _327  and  _330
REMARK  134  A    between atoms: _330  and  _331
REMARK  135  A    between atoms: _334  and  _336
REMARK  136  A    between atoms: _336  and  _337
REMARK  137  A    between atoms: _336  and  _339
REMARK  138  A    between atoms: _339  and  _340
REMARK  139  A    between atoms: _343  and  _345
REMARK  140  A    between atoms: _345  and  _346
REMARK  141  A    between atoms: _345  and  _348
REMARK  142  A    between atoms: _348  and  _349
REMARK  143  A    between atoms: _352  and  _354
REMARK  144  A    between atoms: _354  and  _355
REMARK  145  A    between atoms: _357  and  _359
REMARK  146  A    between atoms: _359  and  _360
REMARK  147  A    between atoms: _363  and  _365
REMARK  148  A    between atoms: _365  and  _366
REMARK  149  A    between atoms: _365  and  _368
REMARK  150  A    between atoms: _368  and  _369
REMARK  151  A    between atoms: _372  and  _374
REMARK  152  A    between atoms: _374  and  _375
REMARK  153  A    between atoms: _374  and  _377
REMARK  154  A    between atoms: _377  and  _378
REMARK  155  A    between atoms: _381  and  _383
REMARK  156  A    between atoms: _383  and  _384
REMARK  157  A    between atoms: _383  and  _386
REMARK  158  A    between atoms: _386  and  _387
REMARK  159  A    between atoms: _390  and  _392
REMARK  160  A    between atoms: _392  and  _393
REMARK  161  A    between atoms: _392  and  _395
REMARK  162  A    between atoms: _398  and  _400
REMARK  163  A    between atoms: _400  and  _401
REMARK  164  A    between atoms: _400  and  _403
REMARK  165  A    between atoms: _403  and  _404
REMARK  166  A    between atoms: _407  and  _409
REMARK  167  A    between atoms: _409  and  _410
REMARK  168  A    between atoms: _409  and  _412
REMARK  169  A    between atoms: _412  and  _413
REMARK  170  A    between atoms: _413  and  _414
REMARK  171  A    between atoms: _414  and  _415
REMARK  172  A    between atoms: _415  and  _416
REMARK  173  A    between atoms: _420  and  _422
REMARK  174  A    between atoms: _422  and  _423
REMARK  175  A    between atoms: _422  and  _425
REMARK  176  A    between atoms: _425  and  _426
REMARK  177  A    between atoms: _426  and  _427
REMARK  178  A    between atoms: _429  and  _431
REMARK  179  A    between atoms: _431  and  _432
REMARK  180  A    between atoms: _431  and  _434
REMARK  181  A    between atoms: _434  and  _435
REMARK  182  A    between atoms: _438  and  _440
REMARK  183  A    between atoms: _440  and  _441
REMARK  184  A    between atoms: _443  and  _445
REMARK  185  A    between atoms: _445  and  _446
REMARK  186  A    between atoms: _448  and  _450
REMARK  187  A    between atoms: _450  and  _451
REMARK  188  A    between atoms: _450  and  _453
REMARK  189  A    between atoms: _456  and  _458
REMARK  190  A    between atoms: _458  and  _459
REMARK  191  A    between atoms: _461  and  _463
REMARK  192  A    between atoms: _463  and  _464
REMARK  193  A    between atoms: _466  and  _468
REMARK  194  A    between atoms: _468  and  _469
REMARK  195  A    between atoms: _468  and  _471
REMARK  196  A    between atoms: _471  and  _472
REMARK  197  A    between atoms: _478  and  _480
REMARK  198  A    between atoms: _480  and  _481
REMARK  199  A    between atoms: _480  and  _483
REMARK  200  A    between atoms: _483  and  _484
REMARK  201  A    between atoms: _487  and  _489
REMARK  202  A    between atoms: _489  and  _490
REMARK  203  A    between atoms: _489  and  _492
REMARK  204  A    between atoms: _495  and  _497
REMARK  205  A    between atoms: _497  and  _498
REMARK  206  A    between atoms: _497  and  _500
REMARK  207  A    between atoms: _500  and  _501
REMARK  208  A    between atoms: _504  and  _506
REMARK  209  A    between atoms: _506  and  _507
REMARK  210  A    between atoms: _506  and  _509
REMARK  211  A    between atoms: _509  and  _510
REMARK  212  A    between atoms: _514  and  _515
REMARK  213  A    between atoms: _520  and  _522
REMARK  214  A    between atoms: _522  and  _523
REMARK  215  A    between atoms: _522  and  _525
REMARK  216  A    between atoms: _528  and  _530
REMARK  217  A    between atoms: _530  and  _531
REMARK  218  A    between atoms: _530  and  _533
REMARK  219  A    between atoms: _533  and  _534
REMARK  220  A    between atoms: _539  and  _541
REMARK  221  A    between atoms: _541  and  _542
REMARK  222  A    between atoms: _541  and  _544
REMARK  223  A    between atoms: _544  and  _545
REMARK  224  A    between atoms: _548  and  _550
REMARK  225  A    between atoms: _550  and  _551
REMARK  226  A    between atoms: _550  and  _553
REMARK  227  A    between atoms: _553  and  _554
REMARK  228  A    between atoms: _557  and  _559
REMARK  229  A    between atoms: _559  and  _560
REMARK  230  A    between atoms: _562  and  _564
REMARK  231  A    between atoms: _564  and  _565
REMARK  232  A    between atoms: _564  and  _567
REMARK  233  A    between atoms: _567  and  _568
REMARK  234  A    between atoms: _568  and  _569
REMARK  235  A    between atoms: _569  and  _570
REMARK  236  A    between atoms: _579  and  _581
REMARK  237  A    between atoms: _581  and  _582
REMARK  238  A    between atoms: _581  and  _584
REMARK  239  A    between atoms: _584  and  _585
REMARK                            x       y       z     vdW  Elec       q    Type
REMARK                         _______ _______ _______ _____ _____    ______ ____
ROOT
ATOM      1  O   HOH     1      24.220  25.049  21.641  0.00  0.00    +0.000 OA
ENDROOT
TORSDOF 0
