REMARK  Name = ../refined-set-2016/3sym/3sym_pocket.pdb
REMARK  240 active torsions:
REMARK  status: ('A' for Active; 'I' for Inactive)
REMARK    1  A    between atoms: _1  and  _3
REMARK    2  A    between atoms: _3  and  _4
REMARK    3  A    between atoms: _3  and  _6
REMARK    4  A    between atoms: _6  and  _7
REMARK    5  A    between atoms: _12  and  _13
REMARK    6  A    between atoms: _15  and  _17
REMARK    7  A    between atoms: _17  and  _18
REMARK    8  A    between atoms: _17  and  _20
REMARK    9  A    between atoms: _20  and  _21
REMARK   10  A    between atoms: _21  and  _22
REMARK   11  A    between atoms: _25  and  _27
REMARK   12  A    between atoms: _27  and  _28
REMARK   13  A    between atoms: _27  and  _30
REMARK   14  A    between atoms: _30  and  _31
REMARK   15  A    between atoms: _36  and  _37
REMARK   16  A    between atoms: _39  and  _41
REMARK   17  A    between atoms: _41  and  _42
REMARK   18  A    between atoms: _44  and  _46
REMARK   19  A    between atoms: _46  and  _47
REMARK   20  A    between atoms: _46  and  _49
REMARK   21  A    between atoms: _49  and  _50
REMARK   22  A    between atoms: _55  and  _57
REMARK   23  A    between atoms: _57  and  _58
REMARK   24  A    between atoms: _60  and  _62
REMARK   25  A    between atoms: _62  and  _63
REMARK   26  A    between atoms: _65  and  _67
REMARK   27  A    between atoms: _67  and  _68
REMARK   28  A    between atoms: _67  and  _70
REMARK   29  A    between atoms: _70  and  _71
REMARK   30  A    between atoms: _74  and  _76
REMARK   31  A    between atoms: _76  and  _77
REMARK   32  A    between atoms: _79  and  _81
REMARK   33  A    between atoms: _81  and  _82
REMARK   34  A    between atoms: _81  and  _84
REMARK   35  A    between atoms: _85  and  _86
REMARK   36  A    between atoms: _86  and  _87
REMARK   37  A    between atoms: _96  and  _98
REMARK   38  A    between atoms: _98  and  _99
REMARK   39  A    between atoms: _98  and  _101
REMARK   40  A    between atoms: _101  and  _102
REMARK   41  A    between atoms: _105  and  _107
REMARK   42  A    between atoms: _107  and  _108
REMARK   43  A    between atoms: _111  and  _113
REMARK   44  A    between atoms: _113  and  _114
REMARK   45  A    between atoms: _113  and  _116
REMARK   46  A    between atoms: _116  and  _117
REMARK   47  A    between atoms: _123  and  _125
REMARK   48  A    between atoms: _125  and  _126
REMARK   49  A    between atoms: _125  and  _128
REMARK   50  A    between atoms: _128  and  _129
REMARK   51  A    between atoms: _134  and  _136
REMARK   52  A    between atoms: _136  and  _137
REMARK   53  A    between atoms: _136  and  _139
REMARK   54  A    between atoms: _139  and  _140
REMARK   55  A    between atoms: _143  and  _145
REMARK   56  A    between atoms: _145  and  _146
REMARK   57  A    between atoms: _145  and  _148
REMARK   58  A    between atoms: _148  and  _149
REMARK   59  A    between atoms: _154  and  _156
REMARK   60  A    between atoms: _156  and  _157
REMARK   61  A    between atoms: _156  and  _159
REMARK   62  A    between atoms: _159  and  _160
REMARK   63  A    between atoms: _166  and  _168
REMARK   64  A    between atoms: _168  and  _169
REMARK   65  A    between atoms: _168  and  _171
REMARK   66  A    between atoms: _171  and  _172
REMARK   67  A    between atoms: _178  and  _180
REMARK   68  A    between atoms: _180  and  _181
REMARK   69  A    between atoms: _180  and  _183
REMARK   70  A    between atoms: _183  and  _184
REMARK   71  A    between atoms: _184  and  _185
REMARK   72  A    between atoms: _185  and  _186
REMARK   73  A    between atoms: _195  and  _197
REMARK   74  A    between atoms: _197  and  _198
REMARK   75  A    between atoms: _197  and  _200
REMARK   76  A    between atoms: _200  and  _201
REMARK   77  A    between atoms: _206  and  _208
REMARK   78  A    between atoms: _208  and  _209
REMARK   79  A    between atoms: _208  and  _211
REMARK   80  A    between atoms: _211  and  _212
REMARK   81  A    between atoms: _215  and  _217
REMARK   82  A    between atoms: _217  and  _218
REMARK   83  A    between atoms: _217  and  _220
REMARK   84  A    between atoms: _220  and  _221
REMARK   85  A    between atoms: _224  and  _226
REMARK   86  A    between atoms: _226  and  _227
REMARK   87  A    between atoms: _226  and  _229
REMARK   88  A    between atoms: _229  and  _230
REMARK   89  A    between atoms: _235  and  _237
REMARK   90  A    between atoms: _237  and  _238
REMARK   91  A    between atoms: _237  and  _240
REMARK   92  A    between atoms: _240  and  _241
REMARK   93  A    between atoms: _244  and  _246
REMARK   94  A    between atoms: _246  and  _247
REMARK   95  A    between atoms: _246  and  _249
REMARK   96  A    between atoms: _249  and  _250
REMARK   97  A    between atoms: _255  and  _257
REMARK   98  A    between atoms: _257  and  _258
REMARK   99  A    between atoms: _257  and  _260
REMARK  100  A    between atoms: _260  and  _261
REMARK  101  A    between atoms: _266  and  _268
REMARK  102  A    between atoms: _268  and  _269
REMARK  103  A    between atoms: _268  and  _271
REMARK  104  A    between atoms: _271  and  _272
REMARK  105  A    between atoms: _275  and  _277
REMARK  106  A    between atoms: _277  and  _278
REMARK  107  A    between atoms: _277  and  _280
REMARK  108  A    between atoms: _283  and  _285
REMARK  109  A    between atoms: _285  and  _286
REMARK  110  A    between atoms: _285  and  _288
REMARK  111  A    between atoms: _288  and  _289
REMARK  112  A    between atoms: _292  and  _294
REMARK  113  A    between atoms: _294  and  _295
REMARK  114  A    between atoms: _298  and  _300
REMARK  115  A    between atoms: _300  and  _301
REMARK  116  A    between atoms: _300  and  _303
REMARK  117  A    between atoms: _303  and  _304
REMARK  118  A    between atoms: _307  and  _309
REMARK  119  A    between atoms: _309  and  _310
REMARK  120  A    between atoms: _309  and  _312
REMARK  121  A    between atoms: _312  and  _313
REMARK  122  A    between atoms: _318  and  _320
REMARK  123  A    between atoms: _320  and  _321
REMARK  124  A    between atoms: _323  and  _325
REMARK  125  A    between atoms: _325  and  _326
REMARK  126  A    between atoms: _325  and  _328
REMARK  127  A    between atoms: _331  and  _333
REMARK  128  A    between atoms: _333  and  _334
REMARK  129  A    between atoms: _337  and  _339
REMARK  130  A    between atoms: _339  and  _340
REMARK  131  A    between atoms: _339  and  _342
REMARK  132  A    between atoms: _342  and  _343
REMARK  133  A    between atoms: _348  and  _350
REMARK  134  A    between atoms: _350  and  _351
REMARK  135  A    between atoms: _350  and  _353
REMARK  136  A    between atoms: _353  and  _354
REMARK  137  A    between atoms: _354  and  _355
REMARK  138  A    between atoms: _355  and  _356
REMARK  139  A    between atoms: _356  and  _357
REMARK  140  A    between atoms: _361  and  _363
REMARK  141  A    between atoms: _363  and  _364
REMARK  142  A    between atoms: _363  and  _366
REMARK  143  A    between atoms: _366  and  _367
REMARK  144  A    between atoms: _370  and  _372
REMARK  145  A    between atoms: _372  and  _373
REMARK  146  A    between atoms: _372  and  _375
REMARK  147  A    between atoms: _375  and  _376
REMARK  148  A    between atoms: _381  and  _383
REMARK  149  A    between atoms: _383  and  _384
REMARK  150  A    between atoms: _386  and  _388
REMARK  151  A    between atoms: _388  and  _389
REMARK  152  A    between atoms: _388  and  _391
REMARK  153  A    between atoms: _391  and  _392
REMARK  154  A    between atoms: _392  and  _393
REMARK  155  A    between atoms: _393  and  _394
REMARK  156  A    between atoms: _394  and  _395
REMARK  157  A    between atoms: _399  and  _401
REMARK  158  A    between atoms: _401  and  _402
REMARK  159  A    between atoms: _401  and  _404
REMARK  160  A    between atoms: _404  and  _405
REMARK  161  A    between atoms: _405  and  _406
REMARK  162  A    between atoms: _406  and  _407
REMARK  163  A    between atoms: _416  and  _418
REMARK  164  A    between atoms: _418  and  _419
REMARK  165  A    between atoms: _418  and  _421
REMARK  166  A    between atoms: _421  and  _422
REMARK  167  A    between atoms: _427  and  _428
REMARK  168  A    between atoms: _430  and  _432
REMARK  169  A    between atoms: _432  and  _433
REMARK  170  A    between atoms: _432  and  _435
REMARK  171  A    between atoms: _435  and  _436
REMARK  172  A    between atoms: _436  and  _437
REMARK  173  A    between atoms: _437  and  _438
REMARK  174  A    between atoms: _438  and  _439
REMARK  175  A    between atoms: _443  and  _445
REMARK  176  A    between atoms: _445  and  _446
REMARK  177  A    between atoms: _445  and  _448
REMARK  178  A    between atoms: _448  and  _449
REMARK  179  A    between atoms: _449  and  _450
REMARK  180  A    between atoms: _455  and  _457
REMARK  181  A    between atoms: _457  and  _458
REMARK  182  A    between atoms: _457  and  _460
REMARK  183  A    between atoms: _460  and  _461
REMARK  184  A    between atoms: _463  and  _465
REMARK  185  A    between atoms: _465  and  _466
REMARK  186  A    between atoms: _465  and  _468
REMARK  187  A    between atoms: _468  and  _469
REMARK  188  A    between atoms: _472  and  _474
REMARK  189  A    between atoms: _474  and  _475
REMARK  190  A    between atoms: _474  and  _477
REMARK  191  A    between atoms: _477  and  _478
REMARK  192  A    between atoms: _478  and  _479
REMARK  193  A    between atoms: _482  and  _484
REMARK  194  A    between atoms: _484  and  _485
REMARK  195  A    between atoms: _488  and  _490
REMARK  196  A    between atoms: _490  and  _491
REMARK  197  A    between atoms: _490  and  _493
REMARK  198  A    between atoms: _493  and  _494
REMARK  199  A    between atoms: _496  and  _498
REMARK  200  A    between atoms: _498  and  _499
REMARK  201  A    between atoms: _501  and  _503
REMARK  202  A    between atoms: _503  and  _504
REMARK  203  A    between atoms: _503  and  _506
REMARK  204  A    between atoms: _506  and  _507
REMARK  205  A    between atoms: _510  and  _512
REMARK  206  A    between atoms: _512  and  _513
REMARK  207  A    between atoms: _515  and  _517
REMARK  208  A    between atoms: _517  and  _518
REMARK  209  A    between atoms: _517  and  _520
REMARK  210  A    between atoms: _520  and  _521
REMARK  211  A    between atoms: _526  and  _528
REMARK  212  A    between atoms: _528  and  _529
REMARK  213  A    between atoms: _528  and  _531
REMARK  214  A    between atoms: _531  and  _532
REMARK  215  A    between atoms: _532  and  _533
REMARK  216  A    between atoms: _540  and  _541
REMARK  217  A    between atoms: _541  and  _557
REMARK  218  A    between atoms: _542  and  _544
REMARK  219  A    between atoms: _544  and  _545
REMARK  220  A    between atoms: _545  and  _546
REMARK  221  A    between atoms: _550  and  _552
REMARK  222  A    between atoms: _552  and  _553
REMARK  223  A    between atoms: _552  and  _560
REMARK  224  A    between atoms: _553  and  _554
REMARK  225  A    between atoms: _554  and  _555
REMARK  226  A    between atoms: _555  and  _556
REMARK  227  A    between atoms: _556  and  _557
REMARK  228  A    between atoms: _562  and  _564
REMARK  229  A    between atoms: _564  and  _565
REMARK  230  A    between atoms: _564  and  _567
REMARK  231  A    between atoms: _567  and  _568
REMARK  232  A    between atoms: _571  and  _573
REMARK  233  A    between atoms: _573  and  _574
REMARK  234  A    between atoms: _576  and  _578
REMARK  235  A    between atoms: _578  and  _579
REMARK  236  A    between atoms: _582  and  _584
REMARK  237  A    between atoms: _584  and  _585
REMARK  238  A    between atoms: _584  and  _587
REMARK  239  A    between atoms: _587  and  _588
REMARK  240  A    between atoms: _593  and  _594
REMARK                            x       y       z     vdW  Elec       q    Type
REMARK                         _______ _______ _______ _____ _____    ______ ____
ROOT
ATOM      1  CG  TYR A   1      33.262  11.338  36.463  0.00  0.00    -0.020 A 
ATOM      2  CD2 TYR A   1      32.844  12.659  36.588  0.00  0.00    -0.001 A 
ATOM      3  CE2 TYR A   1      32.934  13.542  35.527  0.00  0.00    +0.036 A 
ATOM      4  CZ  TYR A   1      33.461  13.110  34.330  0.00  0.00    +0.134 A 
ATOM      5  CE1 TYR A   1      33.879  11.801  34.168  0.00  0.00    +0.036 A 
ATOM      6  CD1 TYR A   1      33.788  10.924  35.233  0.00  0.00    -0.001 A 
ENDROOT
BRANCH   4   7
ATOM      7  OH  TYR A   1      33.548  13.995  33.282  0.00  0.00    -0.506 OA
ATOM      8  HH  TYR A   1      33.945  13.538  32.498  0.00  0.00    +0.292 HD
ENDBRANCH   4   7
BRANCH   1   9
ATOM      9  CB  TYR A   1      33.196  10.398  37.628  0.00  0.00    +0.051 C 
BRANCH   9  10
ATOM     10  CA  TYR A   1      34.534  10.324  38.378  0.00  0.00    +0.137 C 
BRANCH  10  11
ATOM     11  N   TYR A   1      34.585   9.123  39.192  0.00  0.00    -0.239 NA
ATOM     12  H   TYR A   1      33.715   8.802  39.664  0.00  0.00    +0.142 HD
ENDBRANCH  10  11
BRANCH  10  13
ATOM     13  C   TYR A   1      34.793  11.581  39.245  0.00  0.00    +0.224 C 
ATOM     14  O   TYR A   1      33.909  12.032  39.992  0.00  0.00    -0.287 OA
ENDBRANCH  10  13
ENDBRANCH   9  10
ENDBRANCH   1   9
TORSDOF 5
REMARK  Name = ../refined-set-2016/3sym/3sym_pocket.pdb
REMARK  240 active torsions:
REMARK  status: ('A' for Active; 'I' for Inactive)
REMARK    1  A    between atoms: _1  and  _3
REMARK    2  A    between atoms: _3  and  _4
REMARK    3  A    between atoms: _3  and  _6
REMARK    4  A    between atoms: _6  and  _7
REMARK    5  A    between atoms: _12  and  _13
REMARK    6  A    between atoms: _15  and  _17
REMARK    7  A    between atoms: _17  and  _18
REMARK    8  A    between atoms: _17  and  _20
REMARK    9  A    between atoms: _20  and  _21
REMARK   10  A    between atoms: _21  and  _22
REMARK   11  A    between atoms: _25  and  _27
REMARK   12  A    between atoms: _27  and  _28
REMARK   13  A    between atoms: _27  and  _30
REMARK   14  A    between atoms: _30  and  _31
REMARK   15  A    between atoms: _36  and  _37
REMARK   16  A    between atoms: _39  and  _41
REMARK   17  A    between atoms: _41  and  _42
REMARK   18  A    between atoms: _44  and  _46
REMARK   19  A    between atoms: _46  and  _47
REMARK   20  A    between atoms: _46  and  _49
REMARK   21  A    between atoms: _49  and  _50
REMARK   22  A    between atoms: _55  and  _57
REMARK   23  A    between atoms: _57  and  _58
REMARK   24  A    between atoms: _60  and  _62
REMARK   25  A    between atoms: _62  and  _63
REMARK   26  A    between atoms: _65  and  _67
REMARK   27  A    between atoms: _67  and  _68
REMARK   28  A    between atoms: _67  and  _70
REMARK   29  A    between atoms: _70  and  _71
REMARK   30  A    between atoms: _74  and  _76
REMARK   31  A    between atoms: _76  and  _77
REMARK   32  A    between atoms: _79  and  _81
REMARK   33  A    between atoms: _81  and  _82
REMARK   34  A    between atoms: _81  and  _84
REMARK   35  A    between atoms: _85  and  _86
REMARK   36  A    between atoms: _86  and  _87
REMARK   37  A    between atoms: _96  and  _98
REMARK   38  A    between atoms: _98  and  _99
REMARK   39  A    between atoms: _98  and  _101
REMARK   40  A    between atoms: _101  and  _102
REMARK   41  A    between atoms: _105  and  _107
REMARK   42  A    between atoms: _107  and  _108
REMARK   43  A    between atoms: _111  and  _113
REMARK   44  A    between atoms: _113  and  _114
REMARK   45  A    between atoms: _113  and  _116
REMARK   46  A    between atoms: _116  and  _117
REMARK   47  A    between atoms: _123  and  _125
REMARK   48  A    between atoms: _125  and  _126
REMARK   49  A    between atoms: _125  and  _128
REMARK   50  A    between atoms: _128  and  _129
REMARK   51  A    between atoms: _134  and  _136
REMARK   52  A    between atoms: _136  and  _137
REMARK   53  A    between atoms: _136  and  _139
REMARK   54  A    between atoms: _139  and  _140
REMARK   55  A    between atoms: _143  and  _145
REMARK   56  A    between atoms: _145  and  _146
REMARK   57  A    between atoms: _145  and  _148
REMARK   58  A    between atoms: _148  and  _149
REMARK   59  A    between atoms: _154  and  _156
REMARK   60  A    between atoms: _156  and  _157
REMARK   61  A    between atoms: _156  and  _159
REMARK   62  A    between atoms: _159  and  _160
REMARK   63  A    between atoms: _166  and  _168
REMARK   64  A    between atoms: _168  and  _169
REMARK   65  A    between atoms: _168  and  _171
REMARK   66  A    between atoms: _171  and  _172
REMARK   67  A    between atoms: _178  and  _180
REMARK   68  A    between atoms: _180  and  _181
REMARK   69  A    between atoms: _180  and  _183
REMARK   70  A    between atoms: _183  and  _184
REMARK   71  A    between atoms: _184  and  _185
REMARK   72  A    between atoms: _185  and  _186
REMARK   73  A    between atoms: _195  and  _197
REMARK   74  A    between atoms: _197  and  _198
REMARK   75  A    between atoms: _197  and  _200
REMARK   76  A    between atoms: _200  and  _201
REMARK   77  A    between atoms: _206  and  _208
REMARK   78  A    between atoms: _208  and  _209
REMARK   79  A    between atoms: _208  and  _211
REMARK   80  A    between atoms: _211  and  _212
REMARK   81  A    between atoms: _215  and  _217
REMARK   82  A    between atoms: _217  and  _218
REMARK   83  A    between atoms: _217  and  _220
REMARK   84  A    between atoms: _220  and  _221
REMARK   85  A    between atoms: _224  and  _226
REMARK   86  A    between atoms: _226  and  _227
REMARK   87  A    between atoms: _226  and  _229
REMARK   88  A    between atoms: _229  and  _230
REMARK   89  A    between atoms: _235  and  _237
REMARK   90  A    between atoms: _237  and  _238
REMARK   91  A    between atoms: _237  and  _240
REMARK   92  A    between atoms: _240  and  _241
REMARK   93  A    between atoms: _244  and  _246
REMARK   94  A    between atoms: _246  and  _247
REMARK   95  A    between atoms: _246  and  _249
REMARK   96  A    between atoms: _249  and  _250
REMARK   97  A    between atoms: _255  and  _257
REMARK   98  A    between atoms: _257  and  _258
REMARK   99  A    between atoms: _257  and  _260
REMARK  100  A    between atoms: _260  and  _261
REMARK  101  A    between atoms: _266  and  _268
REMARK  102  A    between atoms: _268  and  _269
REMARK  103  A    between atoms: _268  and  _271
REMARK  104  A    between atoms: _271  and  _272
REMARK  105  A    between atoms: _275  and  _277
REMARK  106  A    between atoms: _277  and  _278
REMARK  107  A    between atoms: _277  and  _280
REMARK  108  A    between atoms: _283  and  _285
REMARK  109  A    between atoms: _285  and  _286
REMARK  110  A    between atoms: _285  and  _288
REMARK  111  A    between atoms: _288  and  _289
REMARK  112  A    between atoms: _292  and  _294
REMARK  113  A    between atoms: _294  and  _295
REMARK  114  A    between atoms: _298  and  _300
REMARK  115  A    between atoms: _300  and  _301
REMARK  116  A    between atoms: _300  and  _303
REMARK  117  A    between atoms: _303  and  _304
REMARK  118  A    between atoms: _307  and  _309
REMARK  119  A    between atoms: _309  and  _310
REMARK  120  A    between atoms: _309  and  _312
REMARK  121  A    between atoms: _312  and  _313
REMARK  122  A    between atoms: _318  and  _320
REMARK  123  A    between atoms: _320  and  _321
REMARK  124  A    between atoms: _323  and  _325
REMARK  125  A    between atoms: _325  and  _326
REMARK  126  A    between atoms: _325  and  _328
REMARK  127  A    between atoms: _331  and  _333
REMARK  128  A    between atoms: _333  and  _334
REMARK  129  A    between atoms: _337  and  _339
REMARK  130  A    between atoms: _339  and  _340
REMARK  131  A    between atoms: _339  and  _342
REMARK  132  A    between atoms: _342  and  _343
REMARK  133  A    between atoms: _348  and  _350
REMARK  134  A    between atoms: _350  and  _351
REMARK  135  A    between atoms: _350  and  _353
REMARK  136  A    between atoms: _353  and  _354
REMARK  137  A    between atoms: _354  and  _355
REMARK  138  A    between atoms: _355  and  _356
REMARK  139  A    between atoms: _356  and  _357
REMARK  140  A    between atoms: _361  and  _363
REMARK  141  A    between atoms: _363  and  _364
REMARK  142  A    between atoms: _363  and  _366
REMARK  143  A    between atoms: _366  and  _367
REMARK  144  A    between atoms: _370  and  _372
REMARK  145  A    between atoms: _372  and  _373
REMARK  146  A    between atoms: _372  and  _375
REMARK  147  A    between atoms: _375  and  _376
REMARK  148  A    between atoms: _381  and  _383
REMARK  149  A    between atoms: _383  and  _384
REMARK  150  A    between atoms: _386  and  _388
REMARK  151  A    between atoms: _388  and  _389
REMARK  152  A    between atoms: _388  and  _391
REMARK  153  A    between atoms: _391  and  _392
REMARK  154  A    between atoms: _392  and  _393
REMARK  155  A    between atoms: _393  and  _394
REMARK  156  A    between atoms: _394  and  _395
REMARK  157  A    between atoms: _399  and  _401
REMARK  158  A    between atoms: _401  and  _402
REMARK  159  A    between atoms: _401  and  _404
REMARK  160  A    between atoms: _404  and  _405
REMARK  161  A    between atoms: _405  and  _406
REMARK  162  A    between atoms: _406  and  _407
REMARK  163  A    between atoms: _416  and  _418
REMARK  164  A    between atoms: _418  and  _419
REMARK  165  A    between atoms: _418  and  _421
REMARK  166  A    between atoms: _421  and  _422
REMARK  167  A    between atoms: _427  and  _428
REMARK  168  A    between atoms: _430  and  _432
REMARK  169  A    between atoms: _432  and  _433
REMARK  170  A    between atoms: _432  and  _435
REMARK  171  A    between atoms: _435  and  _436
REMARK  172  A    between atoms: _436  and  _437
REMARK  173  A    between atoms: _437  and  _438
REMARK  174  A    between atoms: _438  and  _439
REMARK  175  A    between atoms: _443  and  _445
REMARK  176  A    between atoms: _445  and  _446
REMARK  177  A    between atoms: _445  and  _448
REMARK  178  A    between atoms: _448  and  _449
REMARK  179  A    between atoms: _449  and  _450
REMARK  180  A    between atoms: _455  and  _457
REMARK  181  A    between atoms: _457  and  _458
REMARK  182  A    between atoms: _457  and  _460
REMARK  183  A    between atoms: _460  and  _461
REMARK  184  A    between atoms: _463  and  _465
REMARK  185  A    between atoms: _465  and  _466
REMARK  186  A    between atoms: _465  and  _468
REMARK  187  A    between atoms: _468  and  _469
REMARK  188  A    between atoms: _472  and  _474
REMARK  189  A    between atoms: _474  and  _475
REMARK  190  A    between atoms: _474  and  _477
REMARK  191  A    between atoms: _477  and  _478
REMARK  192  A    between atoms: _478  and  _479
REMARK  193  A    between atoms: _482  and  _484
REMARK  194  A    between atoms: _484  and  _485
REMARK  195  A    between atoms: _488  and  _490
REMARK  196  A    between atoms: _490  and  _491
REMARK  197  A    between atoms: _490  and  _493
REMARK  198  A    between atoms: _493  and  _494
REMARK  199  A    between atoms: _496  and  _498
REMARK  200  A    between atoms: _498  and  _499
REMARK  201  A    between atoms: _501  and  _503
REMARK  202  A    between atoms: _503  and  _504
REMARK  203  A    between atoms: _503  and  _506
REMARK  204  A    between atoms: _506  and  _507
REMARK  205  A    between atoms: _510  and  _512
REMARK  206  A    between atoms: _512  and  _513
REMARK  207  A    between atoms: _515  and  _517
REMARK  208  A    between atoms: _517  and  _518
REMARK  209  A    between atoms: _517  and  _520
REMARK  210  A    between atoms: _520  and  _521
REMARK  211  A    between atoms: _526  and  _528
REMARK  212  A    between atoms: _528  and  _529
REMARK  213  A    between atoms: _528  and  _531
REMARK  214  A    between atoms: _531  and  _532
REMARK  215  A    between atoms: _532  and  _533
REMARK  216  A    between atoms: _540  and  _541
REMARK  217  A    between atoms: _541  and  _557
REMARK  218  A    between atoms: _542  and  _544
REMARK  219  A    between atoms: _544  and  _545
REMARK  220  A    between atoms: _545  and  _546
REMARK  221  A    between atoms: _550  and  _552
REMARK  222  A    between atoms: _552  and  _553
REMARK  223  A    between atoms: _552  and  _560
REMARK  224  A    between atoms: _553  and  _554
REMARK  225  A    between atoms: _554  and  _555
REMARK  226  A    between atoms: _555  and  _556
REMARK  227  A    between atoms: _556  and  _557
REMARK  228  A    between atoms: _562  and  _564
REMARK  229  A    between atoms: _564  and  _565
REMARK  230  A    between atoms: _564  and  _567
REMARK  231  A    between atoms: _567  and  _568
REMARK  232  A    between atoms: _571  and  _573
REMARK  233  A    between atoms: _573  and  _574
REMARK  234  A    between atoms: _576  and  _578
REMARK  235  A    between atoms: _578  and  _579
REMARK  236  A    between atoms: _582  and  _584
REMARK  237  A    between atoms: _584  and  _585
REMARK  238  A    between atoms: _584  and  _587
REMARK  239  A    between atoms: _587  and  _588
REMARK  240  A    between atoms: _593  and  _594
REMARK                            x       y       z     vdW  Elec       q    Type
REMARK                         _______ _______ _______ _____ _____    ______ ____
ROOT
ATOM      1  CA  GLU A   1      31.598  20.614  38.897  0.00  0.00    +0.134 C 
ENDROOT
BRANCH   1   2
ATOM      2  N   GLU A   1      32.919  20.134  39.295  0.00  0.00    -0.239 NA
ATOM      3  H   GLU A   1      33.362  19.353  38.771  0.00  0.00    +0.142 HD
ENDBRANCH   1   2
BRANCH   1   4
ATOM      4  C   GLU A   1      30.622  19.475  38.667  0.00  0.00    +0.224 C 
ATOM      5  O   GLU A   1      30.952  18.485  38.000  0.00  0.00    -0.287 OA
ENDBRANCH   1   4
BRANCH   1   6
ATOM      6  CB  GLU A   1      31.696  21.515  37.646  0.00  0.00    +0.037 C 
BRANCH   6   7
ATOM      7  CG  GLU A   1      32.523  22.777  37.864  0.00  0.00    +0.116 C 
BRANCH   7   8
ATOM      8  CD  GLU A   1      32.487  23.728  36.689  0.00  0.00    +0.365 C 
ATOM      9  OE2 GLU A   1      33.420  24.543  36.584  0.00  0.00    -0.246 OA
ATOM     10  OE1 GLU A   1      31.532  23.678  35.872  0.00  0.00    -0.246 OA
ENDBRANCH   7   8
ENDBRANCH   6   7
ENDBRANCH   1   6
TORSDOF 5
REMARK  Name = ../refined-set-2016/3sym/3sym_pocket.pdb
REMARK  240 active torsions:
REMARK  status: ('A' for Active; 'I' for Inactive)
REMARK    1  A    between atoms: _1  and  _3
REMARK    2  A    between atoms: _3  and  _4
REMARK    3  A    between atoms: _3  and  _6
REMARK    4  A    between atoms: _6  and  _7
REMARK    5  A    between atoms: _12  and  _13
REMARK    6  A    between atoms: _15  and  _17
REMARK    7  A    between atoms: _17  and  _18
REMARK    8  A    between atoms: _17  and  _20
REMARK    9  A    between atoms: _20  and  _21
REMARK   10  A    between atoms: _21  and  _22
REMARK   11  A    between atoms: _25  and  _27
REMARK   12  A    between atoms: _27  and  _28
REMARK   13  A    between atoms: _27  and  _30
REMARK   14  A    between atoms: _30  and  _31
REMARK   15  A    between atoms: _36  and  _37
REMARK   16  A    between atoms: _39  and  _41
REMARK   17  A    between atoms: _41  and  _42
REMARK   18  A    between atoms: _44  and  _46
REMARK   19  A    between atoms: _46  and  _47
REMARK   20  A    between atoms: _46  and  _49
REMARK   21  A    between atoms: _49  and  _50
REMARK   22  A    between atoms: _55  and  _57
REMARK   23  A    between atoms: _57  and  _58
REMARK   24  A    between atoms: _60  and  _62
REMARK   25  A    between atoms: _62  and  _63
REMARK   26  A    between atoms: _65  and  _67
REMARK   27  A    between atoms: _67  and  _68
REMARK   28  A    between atoms: _67  and  _70
REMARK   29  A    between atoms: _70  and  _71
REMARK   30  A    between atoms: _74  and  _76
REMARK   31  A    between atoms: _76  and  _77
REMARK   32  A    between atoms: _79  and  _81
REMARK   33  A    between atoms: _81  and  _82
REMARK   34  A    between atoms: _81  and  _84
REMARK   35  A    between atoms: _85  and  _86
REMARK   36  A    between atoms: _86  and  _87
REMARK   37  A    between atoms: _96  and  _98
REMARK   38  A    between atoms: _98  and  _99
REMARK   39  A    between atoms: _98  and  _101
REMARK   40  A    between atoms: _101  and  _102
REMARK   41  A    between atoms: _105  and  _107
REMARK   42  A    between atoms: _107  and  _108
REMARK   43  A    between atoms: _111  and  _113
REMARK   44  A    between atoms: _113  and  _114
REMARK   45  A    between atoms: _113  and  _116
REMARK   46  A    between atoms: _116  and  _117
REMARK   47  A    between atoms: _123  and  _125
REMARK   48  A    between atoms: _125  and  _126
REMARK   49  A    between atoms: _125  and  _128
REMARK   50  A    between atoms: _128  and  _129
REMARK   51  A    between atoms: _134  and  _136
REMARK   52  A    between atoms: _136  and  _137
REMARK   53  A    between atoms: _136  and  _139
REMARK   54  A    between atoms: _139  and  _140
REMARK   55  A    between atoms: _143  and  _145
REMARK   56  A    between atoms: _145  and  _146
REMARK   57  A    between atoms: _145  and  _148
REMARK   58  A    between atoms: _148  and  _149
REMARK   59  A    between atoms: _154  and  _156
REMARK   60  A    between atoms: _156  and  _157
REMARK   61  A    between atoms: _156  and  _159
REMARK   62  A    between atoms: _159  and  _160
REMARK   63  A    between atoms: _166  and  _168
REMARK   64  A    between atoms: _168  and  _169
REMARK   65  A    between atoms: _168  and  _171
REMARK   66  A    between atoms: _171  and  _172
REMARK   67  A    between atoms: _178  and  _180
REMARK   68  A    between atoms: _180  and  _181
REMARK   69  A    between atoms: _180  and  _183
REMARK   70  A    between atoms: _183  and  _184
REMARK   71  A    between atoms: _184  and  _185
REMARK   72  A    between atoms: _185  and  _186
REMARK   73  A    between atoms: _195  and  _197
REMARK   74  A    between atoms: _197  and  _198
REMARK   75  A    between atoms: _197  and  _200
REMARK   76  A    between atoms: _200  and  _201
REMARK   77  A    between atoms: _206  and  _208
REMARK   78  A    between atoms: _208  and  _209
REMARK   79  A    between atoms: _208  and  _211
REMARK   80  A    between atoms: _211  and  _212
REMARK   81  A    between atoms: _215  and  _217
REMARK   82  A    between atoms: _217  and  _218
REMARK   83  A    between atoms: _217  and  _220
REMARK   84  A    between atoms: _220  and  _221
REMARK   85  A    between atoms: _224  and  _226
REMARK   86  A    between atoms: _226  and  _227
REMARK   87  A    between atoms: _226  and  _229
REMARK   88  A    between atoms: _229  and  _230
REMARK   89  A    between atoms: _235  and  _237
REMARK   90  A    between atoms: _237  and  _238
REMARK   91  A    between atoms: _237  and  _240
REMARK   92  A    between atoms: _240  and  _241
REMARK   93  A    between atoms: _244  and  _246
REMARK   94  A    between atoms: _246  and  _247
REMARK   95  A    between atoms: _246  and  _249
REMARK   96  A    between atoms: _249  and  _250
REMARK   97  A    between atoms: _255  and  _257
REMARK   98  A    between atoms: _257  and  _258
REMARK   99  A    between atoms: _257  and  _260
REMARK  100  A    between atoms: _260  and  _261
REMARK  101  A    between atoms: _266  and  _268
REMARK  102  A    between atoms: _268  and  _269
REMARK  103  A    between atoms: _268  and  _271
REMARK  104  A    between atoms: _271  and  _272
REMARK  105  A    between atoms: _275  and  _277
REMARK  106  A    between atoms: _277  and  _278
REMARK  107  A    between atoms: _277  and  _280
REMARK  108  A    between atoms: _283  and  _285
REMARK  109  A    between atoms: _285  and  _286
REMARK  110  A    between atoms: _285  and  _288
REMARK  111  A    between atoms: _288  and  _289
REMARK  112  A    between atoms: _292  and  _294
REMARK  113  A    between atoms: _294  and  _295
REMARK  114  A    between atoms: _298  and  _300
REMARK  115  A    between atoms: _300  and  _301
REMARK  116  A    between atoms: _300  and  _303
REMARK  117  A    between atoms: _303  and  _304
REMARK  118  A    between atoms: _307  and  _309
REMARK  119  A    between atoms: _309  and  _310
REMARK  120  A    between atoms: _309  and  _312
REMARK  121  A    between atoms: _312  and  _313
REMARK  122  A    between atoms: _318  and  _320
REMARK  123  A    between atoms: _320  and  _321
REMARK  124  A    between atoms: _323  and  _325
REMARK  125  A    between atoms: _325  and  _326
REMARK  126  A    between atoms: _325  and  _328
REMARK  127  A    between atoms: _331  and  _333
REMARK  128  A    between atoms: _333  and  _334
REMARK  129  A    between atoms: _337  and  _339
REMARK  130  A    between atoms: _339  and  _340
REMARK  131  A    between atoms: _339  and  _342
REMARK  132  A    between atoms: _342  and  _343
REMARK  133  A    between atoms: _348  and  _350
REMARK  134  A    between atoms: _350  and  _351
REMARK  135  A    between atoms: _350  and  _353
REMARK  136  A    between atoms: _353  and  _354
REMARK  137  A    between atoms: _354  and  _355
REMARK  138  A    between atoms: _355  and  _356
REMARK  139  A    between atoms: _356  and  _357
REMARK  140  A    between atoms: _361  and  _363
REMARK  141  A    between atoms: _363  and  _364
REMARK  142  A    between atoms: _363  and  _366
REMARK  143  A    between atoms: _366  and  _367
REMARK  144  A    between atoms: _370  and  _372
REMARK  145  A    between atoms: _372  and  _373
REMARK  146  A    between atoms: _372  and  _375
REMARK  147  A    between atoms: _375  and  _376
REMARK  148  A    between atoms: _381  and  _383
REMARK  149  A    between atoms: _383  and  _384
REMARK  150  A    between atoms: _386  and  _388
REMARK  151  A    between atoms: _388  and  _389
REMARK  152  A    between atoms: _388  and  _391
REMARK  153  A    between atoms: _391  and  _392
REMARK  154  A    between atoms: _392  and  _393
REMARK  155  A    between atoms: _393  and  _394
REMARK  156  A    between atoms: _394  and  _395
REMARK  157  A    between atoms: _399  and  _401
REMARK  158  A    between atoms: _401  and  _402
REMARK  159  A    between atoms: _401  and  _404
REMARK  160  A    between atoms: _404  and  _405
REMARK  161  A    between atoms: _405  and  _406
REMARK  162  A    between atoms: _406  and  _407
REMARK  163  A    between atoms: _416  and  _418
REMARK  164  A    between atoms: _418  and  _419
REMARK  165  A    between atoms: _418  and  _421
REMARK  166  A    between atoms: _421  and  _422
REMARK  167  A    between atoms: _427  and  _428
REMARK  168  A    between atoms: _430  and  _432
REMARK  169  A    between atoms: _432  and  _433
REMARK  170  A    between atoms: _432  and  _435
REMARK  171  A    between atoms: _435  and  _436
REMARK  172  A    between atoms: _436  and  _437
REMARK  173  A    between atoms: _437  and  _438
REMARK  174  A    between atoms: _438  and  _439
REMARK  175  A    between atoms: _443  and  _445
REMARK  176  A    between atoms: _445  and  _446
REMARK  177  A    between atoms: _445  and  _448
REMARK  178  A    between atoms: _448  and  _449
REMARK  179  A    between atoms: _449  and  _450
REMARK  180  A    between atoms: _455  and  _457
REMARK  181  A    between atoms: _457  and  _458
REMARK  182  A    between atoms: _457  and  _460
REMARK  183  A    between atoms: _460  and  _461
REMARK  184  A    between atoms: _463  and  _465
REMARK  185  A    between atoms: _465  and  _466
REMARK  186  A    between atoms: _465  and  _468
REMARK  187  A    between atoms: _468  and  _469
REMARK  188  A    between atoms: _472  and  _474
REMARK  189  A    between atoms: _474  and  _475
REMARK  190  A    between atoms: _474  and  _477
REMARK  191  A    between atoms: _477  and  _478
REMARK  192  A    between atoms: _478  and  _479
REMARK  193  A    between atoms: _482  and  _484
REMARK  194  A    between atoms: _484  and  _485
REMARK  195  A    between atoms: _488  and  _490
REMARK  196  A    between atoms: _490  and  _491
REMARK  197  A    between atoms: _490  and  _493
REMARK  198  A    between atoms: _493  and  _494
REMARK  199  A    between atoms: _496  and  _498
REMARK  200  A    between atoms: _498  and  _499
REMARK  201  A    between atoms: _501  and  _503
REMARK  202  A    between atoms: _503  and  _504
REMARK  203  A    between atoms: _503  and  _506
REMARK  204  A    between atoms: _506  and  _507
REMARK  205  A    between atoms: _510  and  _512
REMARK  206  A    between atoms: _512  and  _513
REMARK  207  A    between atoms: _515  and  _517
REMARK  208  A    between atoms: _517  and  _518
REMARK  209  A    between atoms: _517  and  _520
REMARK  210  A    between atoms: _520  and  _521
REMARK  211  A    between atoms: _526  and  _528
REMARK  212  A    between atoms: _528  and  _529
REMARK  213  A    between atoms: _528  and  _531
REMARK  214  A    between atoms: _531  and  _532
REMARK  215  A    between atoms: _532  and  _533
REMARK  216  A    between atoms: _540  and  _541
REMARK  217  A    between atoms: _541  and  _557
REMARK  218  A    between atoms: _542  and  _544
REMARK  219  A    between atoms: _544  and  _545
REMARK  220  A    between atoms: _545  and  _546
REMARK  221  A    between atoms: _550  and  _552
REMARK  222  A    between atoms: _552  and  _553
REMARK  223  A    between atoms: _552  and  _560
REMARK  224  A    between atoms: _553  and  _554
REMARK  225  A    between atoms: _554  and  _555
REMARK  226  A    between atoms: _555  and  _556
REMARK  227  A    between atoms: _556  and  _557
REMARK  228  A    between atoms: _562  and  _564
REMARK  229  A    between atoms: _564  and  _565
REMARK  230  A    between atoms: _564  and  _567
REMARK  231  A    between atoms: _567  and  _568
REMARK  232  A    between atoms: _571  and  _573
REMARK  233  A    between atoms: _573  and  _574
REMARK  234  A    between atoms: _576  and  _578
REMARK  235  A    between atoms: _578  and  _579
REMARK  236  A    between atoms: _582  and  _584
REMARK  237  A    between atoms: _584  and  _585
REMARK  238  A    between atoms: _584  and  _587
REMARK  239  A    between atoms: _587  and  _588
REMARK  240  A    between atoms: _593  and  _594
REMARK                            x       y       z     vdW  Elec       q    Type
REMARK                         _______ _______ _______ _____ _____    ______ ____
ROOT
ATOM      1  CG  TYR A   1      25.352  22.826  35.786  0.00  0.00    -0.020 A 
ATOM      2  CD2 TYR A   1      24.450  23.355  36.707  0.00  0.00    -0.001 A 
ATOM      3  CE2 TYR A   1      23.929  24.634  36.531  0.00  0.00    +0.036 A 
ATOM      4  CZ  TYR A   1      24.312  25.376  35.417  0.00  0.00    +0.134 A 
ATOM      5  CE1 TYR A   1      25.181  24.859  34.496  0.00  0.00    +0.036 A 
ATOM      6  CD1 TYR A   1      25.692  23.592  34.679  0.00  0.00    -0.001 A 
ENDROOT
BRANCH   4   7
ATOM      7  OH  TYR A   1      23.813  26.636  35.180  0.00  0.00    -0.506 OA
ATOM      8  HH  TYR A   1      24.561  27.282  35.133  0.00  0.00    +0.292 HD
ENDBRANCH   4   7
BRANCH   1   9
ATOM      9  CB  TYR A   1      25.922  21.453  35.935  0.00  0.00    +0.051 C 
BRANCH   9  10
ATOM     10  CA  TYR A   1      25.639  20.745  37.236  0.00  0.00    +0.137 C 
BRANCH  10  11
ATOM     11  N   TYR A   1      26.758  19.871  37.516  0.00  0.00    -0.239 NA
ATOM     12  H   TYR A   1      27.310  19.478  36.727  0.00  0.00    +0.142 HD
ENDBRANCH  10  11
BRANCH  10  13
ATOM     13  C   TYR A   1      24.327  19.941  37.146  0.00  0.00    +0.224 C 
ATOM     14  O   TYR A   1      23.864  19.585  36.049  0.00  0.00    -0.287 OA
ENDBRANCH  10  13
ENDBRANCH   9  10
ENDBRANCH   1   9
TORSDOF 5
REMARK  Name = ../refined-set-2016/3sym/3sym_pocket.pdb
REMARK  240 active torsions:
REMARK  status: ('A' for Active; 'I' for Inactive)
REMARK    1  A    between atoms: _1  and  _3
REMARK    2  A    between atoms: _3  and  _4
REMARK    3  A    between atoms: _3  and  _6
REMARK    4  A    between atoms: _6  and  _7
REMARK    5  A    between atoms: _12  and  _13
REMARK    6  A    between atoms: _15  and  _17
REMARK    7  A    between atoms: _17  and  _18
REMARK    8  A    between atoms: _17  and  _20
REMARK    9  A    between atoms: _20  and  _21
REMARK   10  A    between atoms: _21  and  _22
REMARK   11  A    between atoms: _25  and  _27
REMARK   12  A    between atoms: _27  and  _28
REMARK   13  A    between atoms: _27  and  _30
REMARK   14  A    between atoms: _30  and  _31
REMARK   15  A    between atoms: _36  and  _37
REMARK   16  A    between atoms: _39  and  _41
REMARK   17  A    between atoms: _41  and  _42
REMARK   18  A    between atoms: _44  and  _46
REMARK   19  A    between atoms: _46  and  _47
REMARK   20  A    between atoms: _46  and  _49
REMARK   21  A    between atoms: _49  and  _50
REMARK   22  A    between atoms: _55  and  _57
REMARK   23  A    between atoms: _57  and  _58
REMARK   24  A    between atoms: _60  and  _62
REMARK   25  A    between atoms: _62  and  _63
REMARK   26  A    between atoms: _65  and  _67
REMARK   27  A    between atoms: _67  and  _68
REMARK   28  A    between atoms: _67  and  _70
REMARK   29  A    between atoms: _70  and  _71
REMARK   30  A    between atoms: _74  and  _76
REMARK   31  A    between atoms: _76  and  _77
REMARK   32  A    between atoms: _79  and  _81
REMARK   33  A    between atoms: _81  and  _82
REMARK   34  A    between atoms: _81  and  _84
REMARK   35  A    between atoms: _85  and  _86
REMARK   36  A    between atoms: _86  and  _87
REMARK   37  A    between atoms: _96  and  _98
REMARK   38  A    between atoms: _98  and  _99
REMARK   39  A    between atoms: _98  and  _101
REMARK   40  A    between atoms: _101  and  _102
REMARK   41  A    between atoms: _105  and  _107
REMARK   42  A    between atoms: _107  and  _108
REMARK   43  A    between atoms: _111  and  _113
REMARK   44  A    between atoms: _113  and  _114
REMARK   45  A    between atoms: _113  and  _116
REMARK   46  A    between atoms: _116  and  _117
REMARK   47  A    between atoms: _123  and  _125
REMARK   48  A    between atoms: _125  and  _126
REMARK   49  A    between atoms: _125  and  _128
REMARK   50  A    between atoms: _128  and  _129
REMARK   51  A    between atoms: _134  and  _136
REMARK   52  A    between atoms: _136  and  _137
REMARK   53  A    between atoms: _136  and  _139
REMARK   54  A    between atoms: _139  and  _140
REMARK   55  A    between atoms: _143  and  _145
REMARK   56  A    between atoms: _145  and  _146
REMARK   57  A    between atoms: _145  and  _148
REMARK   58  A    between atoms: _148  and  _149
REMARK   59  A    between atoms: _154  and  _156
REMARK   60  A    between atoms: _156  and  _157
REMARK   61  A    between atoms: _156  and  _159
REMARK   62  A    between atoms: _159  and  _160
REMARK   63  A    between atoms: _166  and  _168
REMARK   64  A    between atoms: _168  and  _169
REMARK   65  A    between atoms: _168  and  _171
REMARK   66  A    between atoms: _171  and  _172
REMARK   67  A    between atoms: _178  and  _180
REMARK   68  A    between atoms: _180  and  _181
REMARK   69  A    between atoms: _180  and  _183
REMARK   70  A    between atoms: _183  and  _184
REMARK   71  A    between atoms: _184  and  _185
REMARK   72  A    between atoms: _185  and  _186
REMARK   73  A    between atoms: _195  and  _197
REMARK   74  A    between atoms: _197  and  _198
REMARK   75  A    between atoms: _197  and  _200
REMARK   76  A    between atoms: _200  and  _201
REMARK   77  A    between atoms: _206  and  _208
REMARK   78  A    between atoms: _208  and  _209
REMARK   79  A    between atoms: _208  and  _211
REMARK   80  A    between atoms: _211  and  _212
REMARK   81  A    between atoms: _215  and  _217
REMARK   82  A    between atoms: _217  and  _218
REMARK   83  A    between atoms: _217  and  _220
REMARK   84  A    between atoms: _220  and  _221
REMARK   85  A    between atoms: _224  and  _226
REMARK   86  A    between atoms: _226  and  _227
REMARK   87  A    between atoms: _226  and  _229
REMARK   88  A    between atoms: _229  and  _230
REMARK   89  A    between atoms: _235  and  _237
REMARK   90  A    between atoms: _237  and  _238
REMARK   91  A    between atoms: _237  and  _240
REMARK   92  A    between atoms: _240  and  _241
REMARK   93  A    between atoms: _244  and  _246
REMARK   94  A    between atoms: _246  and  _247
REMARK   95  A    between atoms: _246  and  _249
REMARK   96  A    between atoms: _249  and  _250
REMARK   97  A    between atoms: _255  and  _257
REMARK   98  A    between atoms: _257  and  _258
REMARK   99  A    between atoms: _257  and  _260
REMARK  100  A    between atoms: _260  and  _261
REMARK  101  A    between atoms: _266  and  _268
REMARK  102  A    between atoms: _268  and  _269
REMARK  103  A    between atoms: _268  and  _271
REMARK  104  A    between atoms: _271  and  _272
REMARK  105  A    between atoms: _275  and  _277
REMARK  106  A    between atoms: _277  and  _278
REMARK  107  A    between atoms: _277  and  _280
REMARK  108  A    between atoms: _283  and  _285
REMARK  109  A    between atoms: _285  and  _286
REMARK  110  A    between atoms: _285  and  _288
REMARK  111  A    between atoms: _288  and  _289
REMARK  112  A    between atoms: _292  and  _294
REMARK  113  A    between atoms: _294  and  _295
REMARK  114  A    between atoms: _298  and  _300
REMARK  115  A    between atoms: _300  and  _301
REMARK  116  A    between atoms: _300  and  _303
REMARK  117  A    between atoms: _303  and  _304
REMARK  118  A    between atoms: _307  and  _309
REMARK  119  A    between atoms: _309  and  _310
REMARK  120  A    between atoms: _309  and  _312
REMARK  121  A    between atoms: _312  and  _313
REMARK  122  A    between atoms: _318  and  _320
REMARK  123  A    between atoms: _320  and  _321
REMARK  124  A    between atoms: _323  and  _325
REMARK  125  A    between atoms: _325  and  _326
REMARK  126  A    between atoms: _325  and  _328
REMARK  127  A    between atoms: _331  and  _333
REMARK  128  A    between atoms: _333  and  _334
REMARK  129  A    between atoms: _337  and  _339
REMARK  130  A    between atoms: _339  and  _340
REMARK  131  A    between atoms: _339  and  _342
REMARK  132  A    between atoms: _342  and  _343
REMARK  133  A    between atoms: _348  and  _350
REMARK  134  A    between atoms: _350  and  _351
REMARK  135  A    between atoms: _350  and  _353
REMARK  136  A    between atoms: _353  and  _354
REMARK  137  A    between atoms: _354  and  _355
REMARK  138  A    between atoms: _355  and  _356
REMARK  139  A    between atoms: _356  and  _357
REMARK  140  A    between atoms: _361  and  _363
REMARK  141  A    between atoms: _363  and  _364
REMARK  142  A    between atoms: _363  and  _366
REMARK  143  A    between atoms: _366  and  _367
REMARK  144  A    between atoms: _370  and  _372
REMARK  145  A    between atoms: _372  and  _373
REMARK  146  A    between atoms: _372  and  _375
REMARK  147  A    between atoms: _375  and  _376
REMARK  148  A    between atoms: _381  and  _383
REMARK  149  A    between atoms: _383  and  _384
REMARK  150  A    between atoms: _386  and  _388
REMARK  151  A    between atoms: _388  and  _389
REMARK  152  A    between atoms: _388  and  _391
REMARK  153  A    between atoms: _391  and  _392
REMARK  154  A    between atoms: _392  and  _393
REMARK  155  A    between atoms: _393  and  _394
REMARK  156  A    between atoms: _394  and  _395
REMARK  157  A    between atoms: _399  and  _401
REMARK  158  A    between atoms: _401  and  _402
REMARK  159  A    between atoms: _401  and  _404
REMARK  160  A    between atoms: _404  and  _405
REMARK  161  A    between atoms: _405  and  _406
REMARK  162  A    between atoms: _406  and  _407
REMARK  163  A    between atoms: _416  and  _418
REMARK  164  A    between atoms: _418  and  _419
REMARK  165  A    between atoms: _418  and  _421
REMARK  166  A    between atoms: _421  and  _422
REMARK  167  A    between atoms: _427  and  _428
REMARK  168  A    between atoms: _430  and  _432
REMARK  169  A    between atoms: _432  and  _433
REMARK  170  A    between atoms: _432  and  _435
REMARK  171  A    between atoms: _435  and  _436
REMARK  172  A    between atoms: _436  and  _437
REMARK  173  A    between atoms: _437  and  _438
REMARK  174  A    between atoms: _438  and  _439
REMARK  175  A    between atoms: _443  and  _445
REMARK  176  A    between atoms: _445  and  _446
REMARK  177  A    between atoms: _445  and  _448
REMARK  178  A    between atoms: _448  and  _449
REMARK  179  A    between atoms: _449  and  _450
REMARK  180  A    between atoms: _455  and  _457
REMARK  181  A    between atoms: _457  and  _458
REMARK  182  A    between atoms: _457  and  _460
REMARK  183  A    between atoms: _460  and  _461
REMARK  184  A    between atoms: _463  and  _465
REMARK  185  A    between atoms: _465  and  _466
REMARK  186  A    between atoms: _465  and  _468
REMARK  187  A    between atoms: _468  and  _469
REMARK  188  A    between atoms: _472  and  _474
REMARK  189  A    between atoms: _474  and  _475
REMARK  190  A    between atoms: _474  and  _477
REMARK  191  A    between atoms: _477  and  _478
REMARK  192  A    between atoms: _478  and  _479
REMARK  193  A    between atoms: _482  and  _484
REMARK  194  A    between atoms: _484  and  _485
REMARK  195  A    between atoms: _488  and  _490
REMARK  196  A    between atoms: _490  and  _491
REMARK  197  A    between atoms: _490  and  _493
REMARK  198  A    between atoms: _493  and  _494
REMARK  199  A    between atoms: _496  and  _498
REMARK  200  A    between atoms: _498  and  _499
REMARK  201  A    between atoms: _501  and  _503
REMARK  202  A    between atoms: _503  and  _504
REMARK  203  A    between atoms: _503  and  _506
REMARK  204  A    between atoms: _506  and  _507
REMARK  205  A    between atoms: _510  and  _512
REMARK  206  A    between atoms: _512  and  _513
REMARK  207  A    between atoms: _515  and  _517
REMARK  208  A    between atoms: _517  and  _518
REMARK  209  A    between atoms: _517  and  _520
REMARK  210  A    between atoms: _520  and  _521
REMARK  211  A    between atoms: _526  and  _528
REMARK  212  A    between atoms: _528  and  _529
REMARK  213  A    between atoms: _528  and  _531
REMARK  214  A    between atoms: _531  and  _532
REMARK  215  A    between atoms: _532  and  _533
REMARK  216  A    between atoms: _540  and  _541
REMARK  217  A    between atoms: _541  and  _557
REMARK  218  A    between atoms: _542  and  _544
REMARK  219  A    between atoms: _544  and  _545
REMARK  220  A    between atoms: _545  and  _546
REMARK  221  A    between atoms: _550  and  _552
REMARK  222  A    between atoms: _552  and  _553
REMARK  223  A    between atoms: _552  and  _560
REMARK  224  A    between atoms: _553  and  _554
REMARK  225  A    between atoms: _554  and  _555
REMARK  226  A    between atoms: _555  and  _556
REMARK  227  A    between atoms: _556  and  _557
REMARK  228  A    between atoms: _562  and  _564
REMARK  229  A    between atoms: _564  and  _565
REMARK  230  A    between atoms: _564  and  _567
REMARK  231  A    between atoms: _567  and  _568
REMARK  232  A    between atoms: _571  and  _573
REMARK  233  A    between atoms: _573  and  _574
REMARK  234  A    between atoms: _576  and  _578
REMARK  235  A    between atoms: _578  and  _579
REMARK  236  A    between atoms: _582  and  _584
REMARK  237  A    between atoms: _584  and  _585
REMARK  238  A    between atoms: _584  and  _587
REMARK  239  A    between atoms: _587  and  _588
REMARK  240  A    between atoms: _593  and  _594
REMARK                            x       y       z     vdW  Elec       q    Type
REMARK                         _______ _______ _______ _____ _____    ______ ____
ROOT
ATOM      1  C   LEU A   5      31.117  20.057  32.883  0.00  0.00    +0.241 C 
ATOM      2  N   GLY A   6      30.429  20.962  33.574  0.00  0.00    -0.295 N 
ATOM      3  H   GLY A   6      30.429  21.957  33.271  0.00  0.00    +0.150 HD
ATOM      4  O   LEU A   5      31.167  18.864  33.220  0.00  0.00    -0.273 OA
ENDROOT
BRANCH   1   5
ATOM      5  CA  LEU A   5      31.838  20.559  31.606  0.00  0.00    +0.149 C 
BRANCH   5   7
ATOM      6  C   GLY A   4      29.867  21.235  30.313  0.00  0.00    +0.243 C 
ATOM      7  N   LEU A   5      31.034  21.524  30.862  0.00  0.00    -0.297 N 
ATOM      8  H   LEU A   5      31.400  22.492  30.758  0.00  0.00    +0.150 HD
ATOM      9  O   GLY A   4      29.326  20.123  30.402  0.00  0.00    -0.273 OA
BRANCH   6  10
ATOM     10  CA  GLY A   4      29.226  22.378  29.560  0.00  0.00    +0.176 C 
BRANCH  10  13
ATOM     11  C   GLY A   3      28.510  23.738  31.465  0.00  0.00    +0.243 C 
ATOM     12  O   GLY A   3      28.177  22.759  32.134  0.00  0.00    -0.273 OA
ATOM     13  N   GLY A   4      29.125  23.642  30.291  0.00  0.00    -0.295 N 
ATOM     14  H   GLY A   4      29.550  24.496  29.877  0.00  0.00    +0.150 HD
BRANCH  11  15
ATOM     15  CA  GLY A   3      28.247  25.135  31.981  0.00  0.00    +0.176 C 
BRANCH  15  18
ATOM     16  C   ASN A   2      28.618  26.471  34.000  0.00  0.00    +0.241 C 
ATOM     17  O   ASN A   2      27.940  27.390  33.602  0.00  0.00    -0.273 OA
ATOM     18  N   GLY A   3      28.779  25.334  33.326  0.00  0.00    -0.295 N 
ATOM     19  H   GLY A   3      29.304  24.557  33.775  0.00  0.00    +0.150 HD
BRANCH  16  20
ATOM     20  CA  ASN A   2      29.348  26.602  35.301  0.00  0.00    +0.158 C 
BRANCH  20  23
ATOM     21  C   GLY A   1      28.461  25.140  37.055  0.00  0.00    +0.240 C 
ATOM     22  O   GLY A   1      27.516  25.901  37.331  0.00  0.00    -0.274 OA
ATOM     23  N   ASN A   2      29.360  25.377  36.087  0.00  0.00    -0.297 N 
ATOM     24  H   ASN A   2      30.089  24.662  35.892  0.00  0.00    +0.150 HD
BRANCH  21  25
ATOM     25  CA  GLY A   1      28.651  23.855  37.827  0.00  0.00    +0.169 C 
BRANCH  25  26
ATOM     26  N   GLY A   1      27.810  23.825  39.001  0.00  0.00    -0.236 NA
ATOM     27  H   GLY A   1      26.970  24.438  39.034  0.00  0.00    +0.142 HD
ENDBRANCH  25  26
ENDBRANCH  21  25
ENDBRANCH  20  23
BRANCH  20  28
ATOM     28  CB  ASN A   2      30.771  27.083  35.002  0.00  0.00    +0.114 C 
BRANCH  28  29
ATOM     29  CG  ASN A   2      31.374  27.855  36.150  0.00  0.00    +0.222 C 
ATOM     30  ND2 ASN A   2      32.316  27.235  36.843  0.00  0.00    -0.329 N 
ATOM     31 HD21 ASN A   2      32.769  27.713  37.648  0.00  0.00    +0.145 HD
ATOM     32 HD22 ASN A   2      32.603  26.270  36.582  0.00  0.00    +0.145 HD
ATOM     33  OD1 ASN A   2      30.995  28.996  36.414  0.00  0.00    -0.275 OA
ENDBRANCH  28  29
ENDBRANCH  20  28
ENDBRANCH  16  20
ENDBRANCH  15  18
ENDBRANCH  11  15
ENDBRANCH  10  13
ENDBRANCH   6  10
ENDBRANCH   5   7
BRANCH   5  34
ATOM     34  CB  LEU A   5      33.190  21.237  31.908  0.00  0.00    +0.029 C 
BRANCH  34  35
ATOM     35  CG  LEU A   5      34.196  20.779  32.946  0.00  0.00    +0.002 C 
ATOM     36  CD2 LEU A   5      33.712  21.142  34.339  0.00  0.00    +0.000 C 
ATOM     37  CD1 LEU A   5      35.541  21.436  32.648  0.00  0.00    +0.000 C 
ENDBRANCH  34  35
ENDBRANCH   5  34
ENDBRANCH   1   5
BRANCH   2  38
ATOM     38  CA  GLY A   6      29.676  20.563  34.753  0.00  0.00    +0.176 C 
BRANCH  38  39
ATOM     39  C   GLY A   6      28.445  19.737  34.445  0.00  0.00    +0.243 C 
ATOM     40  O   GLY A   6      28.124  18.816  35.171  0.00  0.00    -0.273 OA
ATOM     41  N   ARG A   7      27.753  20.093  33.366  0.00  0.00    -0.294 N 
ATOM     42  H   ARG A   7      28.065  20.919  32.817  0.00  0.00    +0.150 HD
BRANCH  41  43
ATOM     43  CA  ARG A   7      26.564  19.357  32.928  0.00  0.00    +0.171 C 
BRANCH  43  44
ATOM     44  C   ARG A   7      26.955  18.007  32.328  0.00  0.00    +0.245 C 
ATOM     45  O   ARG A   7      26.205  17.047  32.469  0.00  0.00    -0.273 OA
ATOM     46  N   LEU A   8      28.135  17.916  31.713  0.00  0.00    -0.297 N 
ATOM     47  H   LEU A   8      28.722  18.767  31.600  0.00  0.00    +0.150 HD
BRANCH  46  48
ATOM     48  CA  LEU A   8      28.617  16.631  31.193  0.00  0.00    +0.149 C 
BRANCH  48  49
ATOM     49  C   LEU A   8      28.757  15.630  32.336  0.00  0.00    +0.241 C 
ATOM     50  N   ALA A   9      29.303  16.104  33.448  0.00  0.00    -0.298 N 
ATOM     51  H   ALA A   9      29.615  17.096  33.474  0.00  0.00    +0.150 HD
ATOM     52  O   LEU A   8      28.355  14.468  32.230  0.00  0.00    -0.273 OA
BRANCH  50  53
ATOM     53  CA  ALA A   9      29.477  15.287  34.619  0.00  0.00    +0.137 C 
ATOM     54  CB  ALA A   9      30.188  16.076  35.713  0.00  0.00    +0.030 C 
BRANCH  53  55
ATOM     55  C   ALA A   9      28.120  14.760  35.094  0.00  0.00    +0.227 C 
ATOM     56  O   ALA A   9      28.007  13.593  35.431  0.00  0.00    -0.286 OA
ENDBRANCH  53  55
ENDBRANCH  50  53
ENDBRANCH  48  49
BRANCH  48  57
ATOM     57  CB  LEU A   8      29.946  16.799  30.470  0.00  0.00    +0.029 C 
BRANCH  57  58
ATOM     58  CG  LEU A   8      30.392  15.575  29.667  0.00  0.00    +0.002 C 
ATOM     59  CD2 LEU A   8      31.888  15.616  29.387  0.00  0.00    +0.000 C 
ATOM     60  CD1 LEU A   8      29.615  15.419  28.354  0.00  0.00    +0.000 C 
ENDBRANCH  57  58
ENDBRANCH  48  57
ENDBRANCH  46  48
ENDBRANCH  43  44
BRANCH  43  61
ATOM     61  CB  ARG A   7      25.715  20.212  31.964  0.00  0.00    +0.001 C 
ATOM     62  CG  ARG A   7      24.359  19.690  31.467  0.00  0.00    +0.014 C 
BRANCH  62  63
ATOM     63  CD  ARG A   7      23.854  18.329  31.967  0.00  0.00    +0.200 C 
BRANCH  63  64
ATOM     64  NE  ARG A   7      22.987  18.402  33.126  0.00  0.00    -0.261 N 
ATOM     65  HE  ARG A   7      22.946  19.307  33.637  0.00  0.00    +0.259 HD
ATOM     66  CZ  ARG A   7      22.237  17.401  33.590  0.00  0.00    +0.342 C 
ATOM     67  NH2 ARG A   7      21.515  17.607  34.687  0.00  0.00    -0.292 N 
ATOM     68 HH21 ARG A   7      21.544  18.532  35.162  0.00  0.00    +0.255 HD
ATOM     69 HH22 ARG A   7      20.922  16.844  35.070  0.00  0.00    +0.255 HD
ATOM     70  NH1 ARG A   7      22.195  16.209  32.990  0.00  0.00    -0.292 N 
ATOM     71 HH11 ARG A   7      21.599  15.451  33.380  0.00  0.00    +0.255 HD
ATOM     72 HH12 ARG A   7      22.759  16.038  32.133  0.00  0.00    +0.255 HD
ENDBRANCH  63  64
ENDBRANCH  62  63
ENDBRANCH  43  61
ENDBRANCH  41  43
ENDBRANCH  38  39
ENDBRANCH   2  38
TORSDOF 27
REMARK  Name = ../refined-set-2016/3sym/3sym_pocket.pdb
REMARK  240 active torsions:
REMARK  status: ('A' for Active; 'I' for Inactive)
REMARK    1  A    between atoms: _1  and  _3
REMARK    2  A    between atoms: _3  and  _4
REMARK    3  A    between atoms: _3  and  _6
REMARK    4  A    between atoms: _6  and  _7
REMARK    5  A    between atoms: _12  and  _13
REMARK    6  A    between atoms: _15  and  _17
REMARK    7  A    between atoms: _17  and  _18
REMARK    8  A    between atoms: _17  and  _20
REMARK    9  A    between atoms: _20  and  _21
REMARK   10  A    between atoms: _21  and  _22
REMARK   11  A    between atoms: _25  and  _27
REMARK   12  A    between atoms: _27  and  _28
REMARK   13  A    between atoms: _27  and  _30
REMARK   14  A    between atoms: _30  and  _31
REMARK   15  A    between atoms: _36  and  _37
REMARK   16  A    between atoms: _39  and  _41
REMARK   17  A    between atoms: _41  and  _42
REMARK   18  A    between atoms: _44  and  _46
REMARK   19  A    between atoms: _46  and  _47
REMARK   20  A    between atoms: _46  and  _49
REMARK   21  A    between atoms: _49  and  _50
REMARK   22  A    between atoms: _55  and  _57
REMARK   23  A    between atoms: _57  and  _58
REMARK   24  A    between atoms: _60  and  _62
REMARK   25  A    between atoms: _62  and  _63
REMARK   26  A    between atoms: _65  and  _67
REMARK   27  A    between atoms: _67  and  _68
REMARK   28  A    between atoms: _67  and  _70
REMARK   29  A    between atoms: _70  and  _71
REMARK   30  A    between atoms: _74  and  _76
REMARK   31  A    between atoms: _76  and  _77
REMARK   32  A    between atoms: _79  and  _81
REMARK   33  A    between atoms: _81  and  _82
REMARK   34  A    between atoms: _81  and  _84
REMARK   35  A    between atoms: _85  and  _86
REMARK   36  A    between atoms: _86  and  _87
REMARK   37  A    between atoms: _96  and  _98
REMARK   38  A    between atoms: _98  and  _99
REMARK   39  A    between atoms: _98  and  _101
REMARK   40  A    between atoms: _101  and  _102
REMARK   41  A    between atoms: _105  and  _107
REMARK   42  A    between atoms: _107  and  _108
REMARK   43  A    between atoms: _111  and  _113
REMARK   44  A    between atoms: _113  and  _114
REMARK   45  A    between atoms: _113  and  _116
REMARK   46  A    between atoms: _116  and  _117
REMARK   47  A    between atoms: _123  and  _125
REMARK   48  A    between atoms: _125  and  _126
REMARK   49  A    between atoms: _125  and  _128
REMARK   50  A    between atoms: _128  and  _129
REMARK   51  A    between atoms: _134  and  _136
REMARK   52  A    between atoms: _136  and  _137
REMARK   53  A    between atoms: _136  and  _139
REMARK   54  A    between atoms: _139  and  _140
REMARK   55  A    between atoms: _143  and  _145
REMARK   56  A    between atoms: _145  and  _146
REMARK   57  A    between atoms: _145  and  _148
REMARK   58  A    between atoms: _148  and  _149
REMARK   59  A    between atoms: _154  and  _156
REMARK   60  A    between atoms: _156  and  _157
REMARK   61  A    between atoms: _156  and  _159
REMARK   62  A    between atoms: _159  and  _160
REMARK   63  A    between atoms: _166  and  _168
REMARK   64  A    between atoms: _168  and  _169
REMARK   65  A    between atoms: _168  and  _171
REMARK   66  A    between atoms: _171  and  _172
REMARK   67  A    between atoms: _178  and  _180
REMARK   68  A    between atoms: _180  and  _181
REMARK   69  A    between atoms: _180  and  _183
REMARK   70  A    between atoms: _183  and  _184
REMARK   71  A    between atoms: _184  and  _185
REMARK   72  A    between atoms: _185  and  _186
REMARK   73  A    between atoms: _195  and  _197
REMARK   74  A    between atoms: _197  and  _198
REMARK   75  A    between atoms: _197  and  _200
REMARK   76  A    between atoms: _200  and  _201
REMARK   77  A    between atoms: _206  and  _208
REMARK   78  A    between atoms: _208  and  _209
REMARK   79  A    between atoms: _208  and  _211
REMARK   80  A    between atoms: _211  and  _212
REMARK   81  A    between atoms: _215  and  _217
REMARK   82  A    between atoms: _217  and  _218
REMARK   83  A    between atoms: _217  and  _220
REMARK   84  A    between atoms: _220  and  _221
REMARK   85  A    between atoms: _224  and  _226
REMARK   86  A    between atoms: _226  and  _227
REMARK   87  A    between atoms: _226  and  _229
REMARK   88  A    between atoms: _229  and  _230
REMARK   89  A    between atoms: _235  and  _237
REMARK   90  A    between atoms: _237  and  _238
REMARK   91  A    between atoms: _237  and  _240
REMARK   92  A    between atoms: _240  and  _241
REMARK   93  A    between atoms: _244  and  _246
REMARK   94  A    between atoms: _246  and  _247
REMARK   95  A    between atoms: _246  and  _249
REMARK   96  A    between atoms: _249  and  _250
REMARK   97  A    between atoms: _255  and  _257
REMARK   98  A    between atoms: _257  and  _258
REMARK   99  A    between atoms: _257  and  _260
REMARK  100  A    between atoms: _260  and  _261
REMARK  101  A    between atoms: _266  and  _268
REMARK  102  A    between atoms: _268  and  _269
REMARK  103  A    between atoms: _268  and  _271
REMARK  104  A    between atoms: _271  and  _272
REMARK  105  A    between atoms: _275  and  _277
REMARK  106  A    between atoms: _277  and  _278
REMARK  107  A    between atoms: _277  and  _280
REMARK  108  A    between atoms: _283  and  _285
REMARK  109  A    between atoms: _285  and  _286
REMARK  110  A    between atoms: _285  and  _288
REMARK  111  A    between atoms: _288  and  _289
REMARK  112  A    between atoms: _292  and  _294
REMARK  113  A    between atoms: _294  and  _295
REMARK  114  A    between atoms: _298  and  _300
REMARK  115  A    between atoms: _300  and  _301
REMARK  116  A    between atoms: _300  and  _303
REMARK  117  A    between atoms: _303  and  _304
REMARK  118  A    between atoms: _307  and  _309
REMARK  119  A    between atoms: _309  and  _310
REMARK  120  A    between atoms: _309  and  _312
REMARK  121  A    between atoms: _312  and  _313
REMARK  122  A    between atoms: _318  and  _320
REMARK  123  A    between atoms: _320  and  _321
REMARK  124  A    between atoms: _323  and  _325
REMARK  125  A    between atoms: _325  and  _326
REMARK  126  A    between atoms: _325  and  _328
REMARK  127  A    between atoms: _331  and  _333
REMARK  128  A    between atoms: _333  and  _334
REMARK  129  A    between atoms: _337  and  _339
REMARK  130  A    between atoms: _339  and  _340
REMARK  131  A    between atoms: _339  and  _342
REMARK  132  A    between atoms: _342  and  _343
REMARK  133  A    between atoms: _348  and  _350
REMARK  134  A    between atoms: _350  and  _351
REMARK  135  A    between atoms: _350  and  _353
REMARK  136  A    between atoms: _353  and  _354
REMARK  137  A    between atoms: _354  and  _355
REMARK  138  A    between atoms: _355  and  _356
REMARK  139  A    between atoms: _356  and  _357
REMARK  140  A    between atoms: _361  and  _363
REMARK  141  A    between atoms: _363  and  _364
REMARK  142  A    between atoms: _363  and  _366
REMARK  143  A    between atoms: _366  and  _367
REMARK  144  A    between atoms: _370  and  _372
REMARK  145  A    between atoms: _372  and  _373
REMARK  146  A    between atoms: _372  and  _375
REMARK  147  A    between atoms: _375  and  _376
REMARK  148  A    between atoms: _381  and  _383
REMARK  149  A    between atoms: _383  and  _384
REMARK  150  A    between atoms: _386  and  _388
REMARK  151  A    between atoms: _388  and  _389
REMARK  152  A    between atoms: _388  and  _391
REMARK  153  A    between atoms: _391  and  _392
REMARK  154  A    between atoms: _392  and  _393
REMARK  155  A    between atoms: _393  and  _394
REMARK  156  A    between atoms: _394  and  _395
REMARK  157  A    between atoms: _399  and  _401
REMARK  158  A    between atoms: _401  and  _402
REMARK  159  A    between atoms: _401  and  _404
REMARK  160  A    between atoms: _404  and  _405
REMARK  161  A    between atoms: _405  and  _406
REMARK  162  A    between atoms: _406  and  _407
REMARK  163  A    between atoms: _416  and  _418
REMARK  164  A    between atoms: _418  and  _419
REMARK  165  A    between atoms: _418  and  _421
REMARK  166  A    between atoms: _421  and  _422
REMARK  167  A    between atoms: _427  and  _428
REMARK  168  A    between atoms: _430  and  _432
REMARK  169  A    between atoms: _432  and  _433
REMARK  170  A    between atoms: _432  and  _435
REMARK  171  A    between atoms: _435  and  _436
REMARK  172  A    between atoms: _436  and  _437
REMARK  173  A    between atoms: _437  and  _438
REMARK  174  A    between atoms: _438  and  _439
REMARK  175  A    between atoms: _443  and  _445
REMARK  176  A    between atoms: _445  and  _446
REMARK  177  A    between atoms: _445  and  _448
REMARK  178  A    between atoms: _448  and  _449
REMARK  179  A    between atoms: _449  and  _450
REMARK  180  A    between atoms: _455  and  _457
REMARK  181  A    between atoms: _457  and  _458
REMARK  182  A    between atoms: _457  and  _460
REMARK  183  A    between atoms: _460  and  _461
REMARK  184  A    between atoms: _463  and  _465
REMARK  185  A    between atoms: _465  and  _466
REMARK  186  A    between atoms: _465  and  _468
REMARK  187  A    between atoms: _468  and  _469
REMARK  188  A    between atoms: _472  and  _474
REMARK  189  A    between atoms: _474  and  _475
REMARK  190  A    between atoms: _474  and  _477
REMARK  191  A    between atoms: _477  and  _478
REMARK  192  A    between atoms: _478  and  _479
REMARK  193  A    between atoms: _482  and  _484
REMARK  194  A    between atoms: _484  and  _485
REMARK  195  A    between atoms: _488  and  _490
REMARK  196  A    between atoms: _490  and  _491
REMARK  197  A    between atoms: _490  and  _493
REMARK  198  A    between atoms: _493  and  _494
REMARK  199  A    between atoms: _496  and  _498
REMARK  200  A    between atoms: _498  and  _499
REMARK  201  A    between atoms: _501  and  _503
REMARK  202  A    between atoms: _503  and  _504
REMARK  203  A    between atoms: _503  and  _506
REMARK  204  A    between atoms: _506  and  _507
REMARK  205  A    between atoms: _510  and  _512
REMARK  206  A    between atoms: _512  and  _513
REMARK  207  A    between atoms: _515  and  _517
REMARK  208  A    between atoms: _517  and  _518
REMARK  209  A    between atoms: _517  and  _520
REMARK  210  A    between atoms: _520  and  _521
REMARK  211  A    between atoms: _526  and  _528
REMARK  212  A    between atoms: _528  and  _529
REMARK  213  A    between atoms: _528  and  _531
REMARK  214  A    between atoms: _531  and  _532
REMARK  215  A    between atoms: _532  and  _533
REMARK  216  A    between atoms: _540  and  _541
REMARK  217  A    between atoms: _541  and  _557
REMARK  218  A    between atoms: _542  and  _544
REMARK  219  A    between atoms: _544  and  _545
REMARK  220  A    between atoms: _545  and  _546
REMARK  221  A    between atoms: _550  and  _552
REMARK  222  A    between atoms: _552  and  _553
REMARK  223  A    between atoms: _552  and  _560
REMARK  224  A    between atoms: _553  and  _554
REMARK  225  A    between atoms: _554  and  _555
REMARK  226  A    between atoms: _555  and  _556
REMARK  227  A    between atoms: _556  and  _557
REMARK  228  A    between atoms: _562  and  _564
REMARK  229  A    between atoms: _564  and  _565
REMARK  230  A    between atoms: _564  and  _567
REMARK  231  A    between atoms: _567  and  _568
REMARK  232  A    between atoms: _571  and  _573
REMARK  233  A    between atoms: _573  and  _574
REMARK  234  A    between atoms: _576  and  _578
REMARK  235  A    between atoms: _578  and  _579
REMARK  236  A    between atoms: _582  and  _584
REMARK  237  A    between atoms: _584  and  _585
REMARK  238  A    between atoms: _584  and  _587
REMARK  239  A    between atoms: _587  and  _588
REMARK  240  A    between atoms: _593  and  _594
REMARK                            x       y       z     vdW  Elec       q    Type
REMARK                         _______ _______ _______ _____ _____    ______ ____
ROOT
ATOM      1  CB  PHE A   1      29.008  11.356  33.013  0.00  0.00    +0.051 C 
ENDROOT
BRANCH   1   2
ATOM      2  CG  PHE A   1      29.710  11.568  31.704  0.00  0.00    -0.020 A 
ATOM      3  CD2 PHE A   1      31.097  11.678  31.653  0.00  0.00    -0.004 A 
ATOM      4  CE2 PHE A   1      31.748  11.870  30.437  0.00  0.00    -0.000 A 
ATOM      5  CZ  PHE A   1      31.011  11.972  29.269  0.00  0.00    -0.000 A 
ATOM      6  CE1 PHE A   1      29.625  11.871  29.312  0.00  0.00    -0.000 A 
ATOM      7  CD1 PHE A   1      28.990  11.666  30.519  0.00  0.00    -0.004 A 
ENDBRANCH   1   2
BRANCH   1   8
ATOM      8  CA  PHE A   1      27.538  10.976  32.863  0.00  0.00    +0.137 C 
BRANCH   8   9
ATOM      9  N   PHE A   1      26.712  12.171  32.652  0.00  0.00    -0.239 NA
ATOM     10  H   PHE A   1      27.164  13.107  32.688  0.00  0.00    +0.142 HD
ENDBRANCH   8   9
BRANCH   8  11
ATOM     11  C   PHE A   1      27.086  10.127  34.055  0.00  0.00    +0.224 C 
ATOM     12  O   PHE A   1      27.012   8.899  33.932  0.00  0.00    -0.287 OA
ENDBRANCH   8  11
ENDBRANCH   1   8
TORSDOF 4
REMARK  Name = ../refined-set-2016/3sym/3sym_pocket.pdb
REMARK  240 active torsions:
REMARK  status: ('A' for Active; 'I' for Inactive)
REMARK    1  A    between atoms: _1  and  _3
REMARK    2  A    between atoms: _3  and  _4
REMARK    3  A    between atoms: _3  and  _6
REMARK    4  A    between atoms: _6  and  _7
REMARK    5  A    between atoms: _12  and  _13
REMARK    6  A    between atoms: _15  and  _17
REMARK    7  A    between atoms: _17  and  _18
REMARK    8  A    between atoms: _17  and  _20
REMARK    9  A    between atoms: _20  and  _21
REMARK   10  A    between atoms: _21  and  _22
REMARK   11  A    between atoms: _25  and  _27
REMARK   12  A    between atoms: _27  and  _28
REMARK   13  A    between atoms: _27  and  _30
REMARK   14  A    between atoms: _30  and  _31
REMARK   15  A    between atoms: _36  and  _37
REMARK   16  A    between atoms: _39  and  _41
REMARK   17  A    between atoms: _41  and  _42
REMARK   18  A    between atoms: _44  and  _46
REMARK   19  A    between atoms: _46  and  _47
REMARK   20  A    between atoms: _46  and  _49
REMARK   21  A    between atoms: _49  and  _50
REMARK   22  A    between atoms: _55  and  _57
REMARK   23  A    between atoms: _57  and  _58
REMARK   24  A    between atoms: _60  and  _62
REMARK   25  A    between atoms: _62  and  _63
REMARK   26  A    between atoms: _65  and  _67
REMARK   27  A    between atoms: _67  and  _68
REMARK   28  A    between atoms: _67  and  _70
REMARK   29  A    between atoms: _70  and  _71
REMARK   30  A    between atoms: _74  and  _76
REMARK   31  A    between atoms: _76  and  _77
REMARK   32  A    between atoms: _79  and  _81
REMARK   33  A    between atoms: _81  and  _82
REMARK   34  A    between atoms: _81  and  _84
REMARK   35  A    between atoms: _85  and  _86
REMARK   36  A    between atoms: _86  and  _87
REMARK   37  A    between atoms: _96  and  _98
REMARK   38  A    between atoms: _98  and  _99
REMARK   39  A    between atoms: _98  and  _101
REMARK   40  A    between atoms: _101  and  _102
REMARK   41  A    between atoms: _105  and  _107
REMARK   42  A    between atoms: _107  and  _108
REMARK   43  A    between atoms: _111  and  _113
REMARK   44  A    between atoms: _113  and  _114
REMARK   45  A    between atoms: _113  and  _116
REMARK   46  A    between atoms: _116  and  _117
REMARK   47  A    between atoms: _123  and  _125
REMARK   48  A    between atoms: _125  and  _126
REMARK   49  A    between atoms: _125  and  _128
REMARK   50  A    between atoms: _128  and  _129
REMARK   51  A    between atoms: _134  and  _136
REMARK   52  A    between atoms: _136  and  _137
REMARK   53  A    between atoms: _136  and  _139
REMARK   54  A    between atoms: _139  and  _140
REMARK   55  A    between atoms: _143  and  _145
REMARK   56  A    between atoms: _145  and  _146
REMARK   57  A    between atoms: _145  and  _148
REMARK   58  A    between atoms: _148  and  _149
REMARK   59  A    between atoms: _154  and  _156
REMARK   60  A    between atoms: _156  and  _157
REMARK   61  A    between atoms: _156  and  _159
REMARK   62  A    between atoms: _159  and  _160
REMARK   63  A    between atoms: _166  and  _168
REMARK   64  A    between atoms: _168  and  _169
REMARK   65  A    between atoms: _168  and  _171
REMARK   66  A    between atoms: _171  and  _172
REMARK   67  A    between atoms: _178  and  _180
REMARK   68  A    between atoms: _180  and  _181
REMARK   69  A    between atoms: _180  and  _183
REMARK   70  A    between atoms: _183  and  _184
REMARK   71  A    between atoms: _184  and  _185
REMARK   72  A    between atoms: _185  and  _186
REMARK   73  A    between atoms: _195  and  _197
REMARK   74  A    between atoms: _197  and  _198
REMARK   75  A    between atoms: _197  and  _200
REMARK   76  A    between atoms: _200  and  _201
REMARK   77  A    between atoms: _206  and  _208
REMARK   78  A    between atoms: _208  and  _209
REMARK   79  A    between atoms: _208  and  _211
REMARK   80  A    between atoms: _211  and  _212
REMARK   81  A    between atoms: _215  and  _217
REMARK   82  A    between atoms: _217  and  _218
REMARK   83  A    between atoms: _217  and  _220
REMARK   84  A    between atoms: _220  and  _221
REMARK   85  A    between atoms: _224  and  _226
REMARK   86  A    between atoms: _226  and  _227
REMARK   87  A    between atoms: _226  and  _229
REMARK   88  A    between atoms: _229  and  _230
REMARK   89  A    between atoms: _235  and  _237
REMARK   90  A    between atoms: _237  and  _238
REMARK   91  A    between atoms: _237  and  _240
REMARK   92  A    between atoms: _240  and  _241
REMARK   93  A    between atoms: _244  and  _246
REMARK   94  A    between atoms: _246  and  _247
REMARK   95  A    between atoms: _246  and  _249
REMARK   96  A    between atoms: _249  and  _250
REMARK   97  A    between atoms: _255  and  _257
REMARK   98  A    between atoms: _257  and  _258
REMARK   99  A    between atoms: _257  and  _260
REMARK  100  A    between atoms: _260  and  _261
REMARK  101  A    between atoms: _266  and  _268
REMARK  102  A    between atoms: _268  and  _269
REMARK  103  A    between atoms: _268  and  _271
REMARK  104  A    between atoms: _271  and  _272
REMARK  105  A    between atoms: _275  and  _277
REMARK  106  A    between atoms: _277  and  _278
REMARK  107  A    between atoms: _277  and  _280
REMARK  108  A    between atoms: _283  and  _285
REMARK  109  A    between atoms: _285  and  _286
REMARK  110  A    between atoms: _285  and  _288
REMARK  111  A    between atoms: _288  and  _289
REMARK  112  A    between atoms: _292  and  _294
REMARK  113  A    between atoms: _294  and  _295
REMARK  114  A    between atoms: _298  and  _300
REMARK  115  A    between atoms: _300  and  _301
REMARK  116  A    between atoms: _300  and  _303
REMARK  117  A    between atoms: _303  and  _304
REMARK  118  A    between atoms: _307  and  _309
REMARK  119  A    between atoms: _309  and  _310
REMARK  120  A    between atoms: _309  and  _312
REMARK  121  A    between atoms: _312  and  _313
REMARK  122  A    between atoms: _318  and  _320
REMARK  123  A    between atoms: _320  and  _321
REMARK  124  A    between atoms: _323  and  _325
REMARK  125  A    between atoms: _325  and  _326
REMARK  126  A    between atoms: _325  and  _328
REMARK  127  A    between atoms: _331  and  _333
REMARK  128  A    between atoms: _333  and  _334
REMARK  129  A    between atoms: _337  and  _339
REMARK  130  A    between atoms: _339  and  _340
REMARK  131  A    between atoms: _339  and  _342
REMARK  132  A    between atoms: _342  and  _343
REMARK  133  A    between atoms: _348  and  _350
REMARK  134  A    between atoms: _350  and  _351
REMARK  135  A    between atoms: _350  and  _353
REMARK  136  A    between atoms: _353  and  _354
REMARK  137  A    between atoms: _354  and  _355
REMARK  138  A    between atoms: _355  and  _356
REMARK  139  A    between atoms: _356  and  _357
REMARK  140  A    between atoms: _361  and  _363
REMARK  141  A    between atoms: _363  and  _364
REMARK  142  A    between atoms: _363  and  _366
REMARK  143  A    between atoms: _366  and  _367
REMARK  144  A    between atoms: _370  and  _372
REMARK  145  A    between atoms: _372  and  _373
REMARK  146  A    between atoms: _372  and  _375
REMARK  147  A    between atoms: _375  and  _376
REMARK  148  A    between atoms: _381  and  _383
REMARK  149  A    between atoms: _383  and  _384
REMARK  150  A    between atoms: _386  and  _388
REMARK  151  A    between atoms: _388  and  _389
REMARK  152  A    between atoms: _388  and  _391
REMARK  153  A    between atoms: _391  and  _392
REMARK  154  A    between atoms: _392  and  _393
REMARK  155  A    between atoms: _393  and  _394
REMARK  156  A    between atoms: _394  and  _395
REMARK  157  A    between atoms: _399  and  _401
REMARK  158  A    between atoms: _401  and  _402
REMARK  159  A    between atoms: _401  and  _404
REMARK  160  A    between atoms: _404  and  _405
REMARK  161  A    between atoms: _405  and  _406
REMARK  162  A    between atoms: _406  and  _407
REMARK  163  A    between atoms: _416  and  _418
REMARK  164  A    between atoms: _418  and  _419
REMARK  165  A    between atoms: _418  and  _421
REMARK  166  A    between atoms: _421  and  _422
REMARK  167  A    between atoms: _427  and  _428
REMARK  168  A    between atoms: _430  and  _432
REMARK  169  A    between atoms: _432  and  _433
REMARK  170  A    between atoms: _432  and  _435
REMARK  171  A    between atoms: _435  and  _436
REMARK  172  A    between atoms: _436  and  _437
REMARK  173  A    between atoms: _437  and  _438
REMARK  174  A    between atoms: _438  and  _439
REMARK  175  A    between atoms: _443  and  _445
REMARK  176  A    between atoms: _445  and  _446
REMARK  177  A    between atoms: _445  and  _448
REMARK  178  A    between atoms: _448  and  _449
REMARK  179  A    between atoms: _449  and  _450
REMARK  180  A    between atoms: _455  and  _457
REMARK  181  A    between atoms: _457  and  _458
REMARK  182  A    between atoms: _457  and  _460
REMARK  183  A    between atoms: _460  and  _461
REMARK  184  A    between atoms: _463  and  _465
REMARK  185  A    between atoms: _465  and  _466
REMARK  186  A    between atoms: _465  and  _468
REMARK  187  A    between atoms: _468  and  _469
REMARK  188  A    between atoms: _472  and  _474
REMARK  189  A    between atoms: _474  and  _475
REMARK  190  A    between atoms: _474  and  _477
REMARK  191  A    between atoms: _477  and  _478
REMARK  192  A    between atoms: _478  and  _479
REMARK  193  A    between atoms: _482  and  _484
REMARK  194  A    between atoms: _484  and  _485
REMARK  195  A    between atoms: _488  and  _490
REMARK  196  A    between atoms: _490  and  _491
REMARK  197  A    between atoms: _490  and  _493
REMARK  198  A    between atoms: _493  and  _494
REMARK  199  A    between atoms: _496  and  _498
REMARK  200  A    between atoms: _498  and  _499
REMARK  201  A    between atoms: _501  and  _503
REMARK  202  A    between atoms: _503  and  _504
REMARK  203  A    between atoms: _503  and  _506
REMARK  204  A    between atoms: _506  and  _507
REMARK  205  A    between atoms: _510  and  _512
REMARK  206  A    between atoms: _512  and  _513
REMARK  207  A    between atoms: _515  and  _517
REMARK  208  A    between atoms: _517  and  _518
REMARK  209  A    between atoms: _517  and  _520
REMARK  210  A    between atoms: _520  and  _521
REMARK  211  A    between atoms: _526  and  _528
REMARK  212  A    between atoms: _528  and  _529
REMARK  213  A    between atoms: _528  and  _531
REMARK  214  A    between atoms: _531  and  _532
REMARK  215  A    between atoms: _532  and  _533
REMARK  216  A    between atoms: _540  and  _541
REMARK  217  A    between atoms: _541  and  _557
REMARK  218  A    between atoms: _542  and  _544
REMARK  219  A    between atoms: _544  and  _545
REMARK  220  A    between atoms: _545  and  _546
REMARK  221  A    between atoms: _550  and  _552
REMARK  222  A    between atoms: _552  and  _553
REMARK  223  A    between atoms: _552  and  _560
REMARK  224  A    between atoms: _553  and  _554
REMARK  225  A    between atoms: _554  and  _555
REMARK  226  A    between atoms: _555  and  _556
REMARK  227  A    between atoms: _556  and  _557
REMARK  228  A    between atoms: _562  and  _564
REMARK  229  A    between atoms: _564  and  _565
REMARK  230  A    between atoms: _564  and  _567
REMARK  231  A    between atoms: _567  and  _568
REMARK  232  A    between atoms: _571  and  _573
REMARK  233  A    between atoms: _573  and  _574
REMARK  234  A    between atoms: _576  and  _578
REMARK  235  A    between atoms: _578  and  _579
REMARK  236  A    between atoms: _582  and  _584
REMARK  237  A    between atoms: _584  and  _585
REMARK  238  A    between atoms: _584  and  _587
REMARK  239  A    between atoms: _587  and  _588
REMARK  240  A    between atoms: _593  and  _594
REMARK                            x       y       z     vdW  Elec       q    Type
REMARK                         _______ _______ _______ _____ _____    ______ ____
ROOT
ATOM      1  CA  ASN A   3      37.207  28.713  29.888  0.00  0.00    +0.158 C 
ENDROOT
BRANCH   1   2
ATOM      2  C   ASN A   3      38.188  29.835  30.171  0.00  0.00    +0.241 C 
ATOM      3  N   PHE A   4      38.526  30.018  31.447  0.00  0.00    -0.297 N 
ATOM      4  H   PHE A   4      38.084  29.417  32.171  0.00  0.00    +0.150 HD
ATOM      5  O   ASN A   3      38.606  30.531  29.247  0.00  0.00    -0.273 OA
BRANCH   3   6
ATOM      6  CA  PHE A   4      39.490  31.026  31.870  0.00  0.00    +0.153 C 
BRANCH   6   7
ATOM      7  C   PHE A   4      40.158  30.582  33.168  0.00  0.00    +0.241 C 
ATOM      8  O   PHE A   4      39.476  30.257  34.139  0.00  0.00    -0.273 OA
ATOM      9  N   PHE A   5      41.485  30.538  33.175  0.00  0.00    -0.298 N 
ATOM     10  H   PHE A   5      42.013  30.763  32.308  0.00  0.00    +0.150 HD
BRANCH   9  11
ATOM     11  CA  PHE A   5      42.206  30.178  34.384  0.00  0.00    +0.141 C 
BRANCH  11  12
ATOM     12  C   PHE A   5      42.491  31.406  35.254  0.00  0.00    +0.227 C 
ATOM     13  O   PHE A   5      42.962  32.427  34.772  0.00  0.00    -0.286 OA
ENDBRANCH  11  12
BRANCH  11  14
ATOM     14  CB  PHE A   5      43.500  29.437  34.043  0.00  0.00    +0.054 C 
BRANCH  14  15
ATOM     15  CG  PHE A   5      44.358  29.124  35.241  0.00  0.00    -0.020 A 
ATOM     16  CD2 PHE A   5      43.892  28.295  36.256  0.00  0.00    -0.004 A 
ATOM     17  CE2 PHE A   5      44.685  28.013  37.356  0.00  0.00    -0.000 A 
ATOM     18  CZ  PHE A   5      45.961  28.551  37.444  0.00  0.00    -0.000 A 
ATOM     19  CE1 PHE A   5      46.441  29.376  36.438  0.00  0.00    -0.000 A 
ATOM     20  CD1 PHE A   5      45.638  29.666  35.356  0.00  0.00    -0.004 A 
ENDBRANCH  14  15
ENDBRANCH  11  14
ENDBRANCH   9  11
ENDBRANCH   6   7
BRANCH   6  21
ATOM     21  CB  PHE A   4      38.830  32.407  32.037  0.00  0.00    +0.055 C 
BRANCH  21  22
ATOM     22  CG  PHE A   4      39.821  33.513  32.247  0.00  0.00    -0.020 A 
ATOM     23  CD2 PHE A   4      40.007  34.076  33.515  0.00  0.00    -0.004 A 
ATOM     24  CE2 PHE A   4      40.947  35.088  33.724  0.00  0.00    -0.000 A 
ATOM     25  CZ  PHE A   4      41.723  35.536  32.659  0.00  0.00    -0.000 A 
ATOM     26  CE1 PHE A   4      41.554  34.974  31.389  0.00  0.00    -0.000 A 
ATOM     27  CD1 PHE A   4      40.612  33.966  31.192  0.00  0.00    -0.004 A 
ENDBRANCH  21  22
ENDBRANCH   6  21
ENDBRANCH   3   6
ENDBRANCH   1   2
BRANCH   1  29
ATOM     28  C   ASP A   2      35.345  29.577  31.218  0.00  0.00    +0.241 C 
ATOM     29  N   ASN A   3      36.168  28.577  30.911  0.00  0.00    -0.297 N 
ATOM     30  H   ASN A   3      36.070  27.671  31.413  0.00  0.00    +0.150 HD
ATOM     31  O   ASP A   2      35.441  30.698  30.718  0.00  0.00    -0.273 OA
BRANCH  28  32
ATOM     32  CA  ASP A   2      34.273  29.287  32.259  0.00  0.00    +0.160 C 
BRANCH  32  35
ATOM     33  C   ASN A   1      34.729  29.992  34.509  0.00  0.00    +0.239 C 
ATOM     34  O   ASN A   1      34.801  28.846  34.927  0.00  0.00    -0.274 OA
ATOM     35  N   ASP A   2      34.469  30.294  33.255  0.00  0.00    -0.297 N 
ATOM     36  H   ASP A   2      34.404  31.295  32.980  0.00  0.00    +0.150 HD
BRANCH  33  37
ATOM     37  CA  ASN A   1      35.021  31.151  35.405  0.00  0.00    +0.154 C 
BRANCH  37  38
ATOM     38  N   ASN A   1      34.328  31.061  36.703  0.00  0.00    -0.238 NA
ATOM     39  H   ASN A   1      34.832  30.664  37.522  0.00  0.00    +0.142 HD
ENDBRANCH  37  38
BRANCH  37  40
ATOM     40  CB  ASN A   1      36.520  31.118  35.580  0.00  0.00    +0.111 C 
BRANCH  40  41
ATOM     41  CG  ASN A   1      36.979  32.036  36.650  0.00  0.00    +0.221 C 
ATOM     42  ND2 ASN A   1      37.577  31.470  37.700  0.00  0.00    -0.329 N 
ATOM     43 HD21 ASN A   1      37.909  32.060  38.490  0.00  0.00    +0.145 HD
ATOM     44 HD22 ASN A   1      37.711  30.439  37.729  0.00  0.00    +0.145 HD
ATOM     45  OD1 ASN A   1      36.786  33.251  36.548  0.00  0.00    -0.275 OA
ENDBRANCH  40  41
ENDBRANCH  37  40
ENDBRANCH  33  37
ENDBRANCH  32  35
BRANCH  32  46
ATOM     46  CB  ASP A   2      32.867  29.443  31.674  0.00  0.00    +0.143 C 
BRANCH  46  47
ATOM     47  CG  ASP A   2      32.450  28.260  30.807  0.00  0.00    +0.367 C 
ATOM     48  OD2 ASP A   2      31.902  27.282  31.376  0.00  0.00    -0.246 OA
ATOM     49  OD1 ASP A   2      32.643  28.334  29.556  0.00  0.00    -0.246 OA
ENDBRANCH  46  47
ENDBRANCH  32  46
ENDBRANCH  28  32
ENDBRANCH   1  29
BRANCH   1  50
ATOM     50  CB  ASN A   3      36.594  28.951  28.508  0.00  0.00    +0.114 C 
BRANCH  50  51
ATOM     51  CG  ASN A   3      36.028  27.696  27.903  0.00  0.00    +0.222 C 
ATOM     52  ND2 ASN A   3      34.766  27.402  28.214  0.00  0.00    -0.329 N 
ATOM     53 HD21 ASN A   3      34.219  28.040  28.827  0.00  0.00    +0.145 HD
ATOM     54 HD22 ASN A   3      34.328  26.535  27.844  0.00  0.00    +0.145 HD
ATOM     55  OD1 ASN A   3      36.726  26.983  27.184  0.00  0.00    -0.275 OA
ENDBRANCH  50  51
ENDBRANCH   1  50
TORSDOF 20
REMARK  Name = ../refined-set-2016/3sym/3sym_pocket.pdb
REMARK  240 active torsions:
REMARK  status: ('A' for Active; 'I' for Inactive)
REMARK    1  A    between atoms: _1  and  _3
REMARK    2  A    between atoms: _3  and  _4
REMARK    3  A    between atoms: _3  and  _6
REMARK    4  A    between atoms: _6  and  _7
REMARK    5  A    between atoms: _12  and  _13
REMARK    6  A    between atoms: _15  and  _17
REMARK    7  A    between atoms: _17  and  _18
REMARK    8  A    between atoms: _17  and  _20
REMARK    9  A    between atoms: _20  and  _21
REMARK   10  A    between atoms: _21  and  _22
REMARK   11  A    between atoms: _25  and  _27
REMARK   12  A    between atoms: _27  and  _28
REMARK   13  A    between atoms: _27  and  _30
REMARK   14  A    between atoms: _30  and  _31
REMARK   15  A    between atoms: _36  and  _37
REMARK   16  A    between atoms: _39  and  _41
REMARK   17  A    between atoms: _41  and  _42
REMARK   18  A    between atoms: _44  and  _46
REMARK   19  A    between atoms: _46  and  _47
REMARK   20  A    between atoms: _46  and  _49
REMARK   21  A    between atoms: _49  and  _50
REMARK   22  A    between atoms: _55  and  _57
REMARK   23  A    between atoms: _57  and  _58
REMARK   24  A    between atoms: _60  and  _62
REMARK   25  A    between atoms: _62  and  _63
REMARK   26  A    between atoms: _65  and  _67
REMARK   27  A    between atoms: _67  and  _68
REMARK   28  A    between atoms: _67  and  _70
REMARK   29  A    between atoms: _70  and  _71
REMARK   30  A    between atoms: _74  and  _76
REMARK   31  A    between atoms: _76  and  _77
REMARK   32  A    between atoms: _79  and  _81
REMARK   33  A    between atoms: _81  and  _82
REMARK   34  A    between atoms: _81  and  _84
REMARK   35  A    between atoms: _85  and  _86
REMARK   36  A    between atoms: _86  and  _87
REMARK   37  A    between atoms: _96  and  _98
REMARK   38  A    between atoms: _98  and  _99
REMARK   39  A    between atoms: _98  and  _101
REMARK   40  A    between atoms: _101  and  _102
REMARK   41  A    between atoms: _105  and  _107
REMARK   42  A    between atoms: _107  and  _108
REMARK   43  A    between atoms: _111  and  _113
REMARK   44  A    between atoms: _113  and  _114
REMARK   45  A    between atoms: _113  and  _116
REMARK   46  A    between atoms: _116  and  _117
REMARK   47  A    between atoms: _123  and  _125
REMARK   48  A    between atoms: _125  and  _126
REMARK   49  A    between atoms: _125  and  _128
REMARK   50  A    between atoms: _128  and  _129
REMARK   51  A    between atoms: _134  and  _136
REMARK   52  A    between atoms: _136  and  _137
REMARK   53  A    between atoms: _136  and  _139
REMARK   54  A    between atoms: _139  and  _140
REMARK   55  A    between atoms: _143  and  _145
REMARK   56  A    between atoms: _145  and  _146
REMARK   57  A    between atoms: _145  and  _148
REMARK   58  A    between atoms: _148  and  _149
REMARK   59  A    between atoms: _154  and  _156
REMARK   60  A    between atoms: _156  and  _157
REMARK   61  A    between atoms: _156  and  _159
REMARK   62  A    between atoms: _159  and  _160
REMARK   63  A    between atoms: _166  and  _168
REMARK   64  A    between atoms: _168  and  _169
REMARK   65  A    between atoms: _168  and  _171
REMARK   66  A    between atoms: _171  and  _172
REMARK   67  A    between atoms: _178  and  _180
REMARK   68  A    between atoms: _180  and  _181
REMARK   69  A    between atoms: _180  and  _183
REMARK   70  A    between atoms: _183  and  _184
REMARK   71  A    between atoms: _184  and  _185
REMARK   72  A    between atoms: _185  and  _186
REMARK   73  A    between atoms: _195  and  _197
REMARK   74  A    between atoms: _197  and  _198
REMARK   75  A    between atoms: _197  and  _200
REMARK   76  A    between atoms: _200  and  _201
REMARK   77  A    between atoms: _206  and  _208
REMARK   78  A    between atoms: _208  and  _209
REMARK   79  A    between atoms: _208  and  _211
REMARK   80  A    between atoms: _211  and  _212
REMARK   81  A    between atoms: _215  and  _217
REMARK   82  A    between atoms: _217  and  _218
REMARK   83  A    between atoms: _217  and  _220
REMARK   84  A    between atoms: _220  and  _221
REMARK   85  A    between atoms: _224  and  _226
REMARK   86  A    between atoms: _226  and  _227
REMARK   87  A    between atoms: _226  and  _229
REMARK   88  A    between atoms: _229  and  _230
REMARK   89  A    between atoms: _235  and  _237
REMARK   90  A    between atoms: _237  and  _238
REMARK   91  A    between atoms: _237  and  _240
REMARK   92  A    between atoms: _240  and  _241
REMARK   93  A    between atoms: _244  and  _246
REMARK   94  A    between atoms: _246  and  _247
REMARK   95  A    between atoms: _246  and  _249
REMARK   96  A    between atoms: _249  and  _250
REMARK   97  A    between atoms: _255  and  _257
REMARK   98  A    between atoms: _257  and  _258
REMARK   99  A    between atoms: _257  and  _260
REMARK  100  A    between atoms: _260  and  _261
REMARK  101  A    between atoms: _266  and  _268
REMARK  102  A    between atoms: _268  and  _269
REMARK  103  A    between atoms: _268  and  _271
REMARK  104  A    between atoms: _271  and  _272
REMARK  105  A    between atoms: _275  and  _277
REMARK  106  A    between atoms: _277  and  _278
REMARK  107  A    between atoms: _277  and  _280
REMARK  108  A    between atoms: _283  and  _285
REMARK  109  A    between atoms: _285  and  _286
REMARK  110  A    between atoms: _285  and  _288
REMARK  111  A    between atoms: _288  and  _289
REMARK  112  A    between atoms: _292  and  _294
REMARK  113  A    between atoms: _294  and  _295
REMARK  114  A    between atoms: _298  and  _300
REMARK  115  A    between atoms: _300  and  _301
REMARK  116  A    between atoms: _300  and  _303
REMARK  117  A    between atoms: _303  and  _304
REMARK  118  A    between atoms: _307  and  _309
REMARK  119  A    between atoms: _309  and  _310
REMARK  120  A    between atoms: _309  and  _312
REMARK  121  A    between atoms: _312  and  _313
REMARK  122  A    between atoms: _318  and  _320
REMARK  123  A    between atoms: _320  and  _321
REMARK  124  A    between atoms: _323  and  _325
REMARK  125  A    between atoms: _325  and  _326
REMARK  126  A    between atoms: _325  and  _328
REMARK  127  A    between atoms: _331  and  _333
REMARK  128  A    between atoms: _333  and  _334
REMARK  129  A    between atoms: _337  and  _339
REMARK  130  A    between atoms: _339  and  _340
REMARK  131  A    between atoms: _339  and  _342
REMARK  132  A    between atoms: _342  and  _343
REMARK  133  A    between atoms: _348  and  _350
REMARK  134  A    between atoms: _350  and  _351
REMARK  135  A    between atoms: _350  and  _353
REMARK  136  A    between atoms: _353  and  _354
REMARK  137  A    between atoms: _354  and  _355
REMARK  138  A    between atoms: _355  and  _356
REMARK  139  A    between atoms: _356  and  _357
REMARK  140  A    between atoms: _361  and  _363
REMARK  141  A    between atoms: _363  and  _364
REMARK  142  A    between atoms: _363  and  _366
REMARK  143  A    between atoms: _366  and  _367
REMARK  144  A    between atoms: _370  and  _372
REMARK  145  A    between atoms: _372  and  _373
REMARK  146  A    between atoms: _372  and  _375
REMARK  147  A    between atoms: _375  and  _376
REMARK  148  A    between atoms: _381  and  _383
REMARK  149  A    between atoms: _383  and  _384
REMARK  150  A    between atoms: _386  and  _388
REMARK  151  A    between atoms: _388  and  _389
REMARK  152  A    between atoms: _388  and  _391
REMARK  153  A    between atoms: _391  and  _392
REMARK  154  A    between atoms: _392  and  _393
REMARK  155  A    between atoms: _393  and  _394
REMARK  156  A    between atoms: _394  and  _395
REMARK  157  A    between atoms: _399  and  _401
REMARK  158  A    between atoms: _401  and  _402
REMARK  159  A    between atoms: _401  and  _404
REMARK  160  A    between atoms: _404  and  _405
REMARK  161  A    between atoms: _405  and  _406
REMARK  162  A    between atoms: _406  and  _407
REMARK  163  A    between atoms: _416  and  _418
REMARK  164  A    between atoms: _418  and  _419
REMARK  165  A    between atoms: _418  and  _421
REMARK  166  A    between atoms: _421  and  _422
REMARK  167  A    between atoms: _427  and  _428
REMARK  168  A    between atoms: _430  and  _432
REMARK  169  A    between atoms: _432  and  _433
REMARK  170  A    between atoms: _432  and  _435
REMARK  171  A    between atoms: _435  and  _436
REMARK  172  A    between atoms: _436  and  _437
REMARK  173  A    between atoms: _437  and  _438
REMARK  174  A    between atoms: _438  and  _439
REMARK  175  A    between atoms: _443  and  _445
REMARK  176  A    between atoms: _445  and  _446
REMARK  177  A    between atoms: _445  and  _448
REMARK  178  A    between atoms: _448  and  _449
REMARK  179  A    between atoms: _449  and  _450
REMARK  180  A    between atoms: _455  and  _457
REMARK  181  A    between atoms: _457  and  _458
REMARK  182  A    between atoms: _457  and  _460
REMARK  183  A    between atoms: _460  and  _461
REMARK  184  A    between atoms: _463  and  _465
REMARK  185  A    between atoms: _465  and  _466
REMARK  186  A    between atoms: _465  and  _468
REMARK  187  A    between atoms: _468  and  _469
REMARK  188  A    between atoms: _472  and  _474
REMARK  189  A    between atoms: _474  and  _475
REMARK  190  A    between atoms: _474  and  _477
REMARK  191  A    between atoms: _477  and  _478
REMARK  192  A    between atoms: _478  and  _479
REMARK  193  A    between atoms: _482  and  _484
REMARK  194  A    between atoms: _484  and  _485
REMARK  195  A    between atoms: _488  and  _490
REMARK  196  A    between atoms: _490  and  _491
REMARK  197  A    between atoms: _490  and  _493
REMARK  198  A    between atoms: _493  and  _494
REMARK  199  A    between atoms: _496  and  _498
REMARK  200  A    between atoms: _498  and  _499
REMARK  201  A    between atoms: _501  and  _503
REMARK  202  A    between atoms: _503  and  _504
REMARK  203  A    between atoms: _503  and  _506
REMARK  204  A    between atoms: _506  and  _507
REMARK  205  A    between atoms: _510  and  _512
REMARK  206  A    between atoms: _512  and  _513
REMARK  207  A    between atoms: _515  and  _517
REMARK  208  A    between atoms: _517  and  _518
REMARK  209  A    between atoms: _517  and  _520
REMARK  210  A    between atoms: _520  and  _521
REMARK  211  A    between atoms: _526  and  _528
REMARK  212  A    between atoms: _528  and  _529
REMARK  213  A    between atoms: _528  and  _531
REMARK  214  A    between atoms: _531  and  _532
REMARK  215  A    between atoms: _532  and  _533
REMARK  216  A    between atoms: _540  and  _541
REMARK  217  A    between atoms: _541  and  _557
REMARK  218  A    between atoms: _542  and  _544
REMARK  219  A    between atoms: _544  and  _545
REMARK  220  A    between atoms: _545  and  _546
REMARK  221  A    between atoms: _550  and  _552
REMARK  222  A    between atoms: _552  and  _553
REMARK  223  A    between atoms: _552  and  _560
REMARK  224  A    between atoms: _553  and  _554
REMARK  225  A    between atoms: _554  and  _555
REMARK  226  A    between atoms: _555  and  _556
REMARK  227  A    between atoms: _556  and  _557
REMARK  228  A    between atoms: _562  and  _564
REMARK  229  A    between atoms: _564  and  _565
REMARK  230  A    between atoms: _564  and  _567
REMARK  231  A    between atoms: _567  and  _568
REMARK  232  A    between atoms: _571  and  _573
REMARK  233  A    between atoms: _573  and  _574
REMARK  234  A    between atoms: _576  and  _578
REMARK  235  A    between atoms: _578  and  _579
REMARK  236  A    between atoms: _582  and  _584
REMARK  237  A    between atoms: _584  and  _585
REMARK  238  A    between atoms: _584  and  _587
REMARK  239  A    between atoms: _587  and  _588
REMARK  240  A    between atoms: _593  and  _594
REMARK                            x       y       z     vdW  Elec       q    Type
REMARK                         _______ _______ _______ _____ _____    ______ ____
ROOT
ATOM      1  NE  ARG A   1      39.276  25.786  40.279  0.00  0.00    -0.265 N 
ATOM      2  HE  ARG A   1      40.175  25.583  39.798  0.00  0.00    +0.259 HD
ATOM      3  CZ  ARG A   1      38.170  25.292  39.729  0.00  0.00    +0.342 C 
ATOM      4  NH2 ARG A   1      36.983  25.479  40.301  0.00  0.00    -0.292 N 
ATOM      5 HH21 ARG A   1      36.912  26.017  41.188  0.00  0.00    +0.255 HD
ATOM      6 HH22 ARG A   1      36.126  25.087  39.861  0.00  0.00    +0.255 HD
ATOM      7  NH1 ARG A   1      38.269  24.581  38.602  0.00  0.00    -0.292 N 
ATOM      8 HH11 ARG A   1      39.201  24.421  38.168  0.00  0.00    +0.255 HD
ATOM      9 HH12 ARG A   1      37.414  24.188  38.159  0.00  0.00    +0.255 HD
ENDROOT
BRANCH   1  10
ATOM     10  CD  ARG A   1      39.340  26.582  41.490  0.00  0.00    +0.174 C 
BRANCH  10  11
ATOM     11  CG  ARG A   1      40.703  27.252  41.585  0.00  0.00    +0.045 C 
BRANCH  11  12
ATOM     12  CB  ARG A   1      40.804  28.208  42.756  0.00  0.00    +0.029 C 
BRANCH  12  13
ATOM     13  CA  ARG A   1      40.857  27.568  44.151  0.00  0.00    +0.133 C 
BRANCH  13  14
ATOM     14  N   ARG A   1      41.179  28.571  45.174  0.00  0.00    -0.239 NA
ATOM     15  H   ARG A   1      41.549  29.497  44.879  0.00  0.00    +0.142 HD
ENDBRANCH  13  14
BRANCH  13  16
ATOM     16  C   ARG A   1      41.818  26.380  44.206  0.00  0.00    +0.224 C 
ATOM     17  O   ARG A   1      41.393  25.236  44.090  0.00  0.00    -0.287 OA
ENDBRANCH  13  16
ENDBRANCH  12  13
ENDBRANCH  11  12
ENDBRANCH  10  11
ENDBRANCH   1  10
TORSDOF 6
REMARK  Name = ../refined-set-2016/3sym/3sym_pocket.pdb
REMARK  240 active torsions:
REMARK  status: ('A' for Active; 'I' for Inactive)
REMARK    1  A    between atoms: _1  and  _3
REMARK    2  A    between atoms: _3  and  _4
REMARK    3  A    between atoms: _3  and  _6
REMARK    4  A    between atoms: _6  and  _7
REMARK    5  A    between atoms: _12  and  _13
REMARK    6  A    between atoms: _15  and  _17
REMARK    7  A    between atoms: _17  and  _18
REMARK    8  A    between atoms: _17  and  _20
REMARK    9  A    between atoms: _20  and  _21
REMARK   10  A    between atoms: _21  and  _22
REMARK   11  A    between atoms: _25  and  _27
REMARK   12  A    between atoms: _27  and  _28
REMARK   13  A    between atoms: _27  and  _30
REMARK   14  A    between atoms: _30  and  _31
REMARK   15  A    between atoms: _36  and  _37
REMARK   16  A    between atoms: _39  and  _41
REMARK   17  A    between atoms: _41  and  _42
REMARK   18  A    between atoms: _44  and  _46
REMARK   19  A    between atoms: _46  and  _47
REMARK   20  A    between atoms: _46  and  _49
REMARK   21  A    between atoms: _49  and  _50
REMARK   22  A    between atoms: _55  and  _57
REMARK   23  A    between atoms: _57  and  _58
REMARK   24  A    between atoms: _60  and  _62
REMARK   25  A    between atoms: _62  and  _63
REMARK   26  A    between atoms: _65  and  _67
REMARK   27  A    between atoms: _67  and  _68
REMARK   28  A    between atoms: _67  and  _70
REMARK   29  A    between atoms: _70  and  _71
REMARK   30  A    between atoms: _74  and  _76
REMARK   31  A    between atoms: _76  and  _77
REMARK   32  A    between atoms: _79  and  _81
REMARK   33  A    between atoms: _81  and  _82
REMARK   34  A    between atoms: _81  and  _84
REMARK   35  A    between atoms: _85  and  _86
REMARK   36  A    between atoms: _86  and  _87
REMARK   37  A    between atoms: _96  and  _98
REMARK   38  A    between atoms: _98  and  _99
REMARK   39  A    between atoms: _98  and  _101
REMARK   40  A    between atoms: _101  and  _102
REMARK   41  A    between atoms: _105  and  _107
REMARK   42  A    between atoms: _107  and  _108
REMARK   43  A    between atoms: _111  and  _113
REMARK   44  A    between atoms: _113  and  _114
REMARK   45  A    between atoms: _113  and  _116
REMARK   46  A    between atoms: _116  and  _117
REMARK   47  A    between atoms: _123  and  _125
REMARK   48  A    between atoms: _125  and  _126
REMARK   49  A    between atoms: _125  and  _128
REMARK   50  A    between atoms: _128  and  _129
REMARK   51  A    between atoms: _134  and  _136
REMARK   52  A    between atoms: _136  and  _137
REMARK   53  A    between atoms: _136  and  _139
REMARK   54  A    between atoms: _139  and  _140
REMARK   55  A    between atoms: _143  and  _145
REMARK   56  A    between atoms: _145  and  _146
REMARK   57  A    between atoms: _145  and  _148
REMARK   58  A    between atoms: _148  and  _149
REMARK   59  A    between atoms: _154  and  _156
REMARK   60  A    between atoms: _156  and  _157
REMARK   61  A    between atoms: _156  and  _159
REMARK   62  A    between atoms: _159  and  _160
REMARK   63  A    between atoms: _166  and  _168
REMARK   64  A    between atoms: _168  and  _169
REMARK   65  A    between atoms: _168  and  _171
REMARK   66  A    between atoms: _171  and  _172
REMARK   67  A    between atoms: _178  and  _180
REMARK   68  A    between atoms: _180  and  _181
REMARK   69  A    between atoms: _180  and  _183
REMARK   70  A    between atoms: _183  and  _184
REMARK   71  A    between atoms: _184  and  _185
REMARK   72  A    between atoms: _185  and  _186
REMARK   73  A    between atoms: _195  and  _197
REMARK   74  A    between atoms: _197  and  _198
REMARK   75  A    between atoms: _197  and  _200
REMARK   76  A    between atoms: _200  and  _201
REMARK   77  A    between atoms: _206  and  _208
REMARK   78  A    between atoms: _208  and  _209
REMARK   79  A    between atoms: _208  and  _211
REMARK   80  A    between atoms: _211  and  _212
REMARK   81  A    between atoms: _215  and  _217
REMARK   82  A    between atoms: _217  and  _218
REMARK   83  A    between atoms: _217  and  _220
REMARK   84  A    between atoms: _220  and  _221
REMARK   85  A    between atoms: _224  and  _226
REMARK   86  A    between atoms: _226  and  _227
REMARK   87  A    between atoms: _226  and  _229
REMARK   88  A    between atoms: _229  and  _230
REMARK   89  A    between atoms: _235  and  _237
REMARK   90  A    between atoms: _237  and  _238
REMARK   91  A    between atoms: _237  and  _240
REMARK   92  A    between atoms: _240  and  _241
REMARK   93  A    between atoms: _244  and  _246
REMARK   94  A    between atoms: _246  and  _247
REMARK   95  A    between atoms: _246  and  _249
REMARK   96  A    between atoms: _249  and  _250
REMARK   97  A    between atoms: _255  and  _257
REMARK   98  A    between atoms: _257  and  _258
REMARK   99  A    between atoms: _257  and  _260
REMARK  100  A    between atoms: _260  and  _261
REMARK  101  A    between atoms: _266  and  _268
REMARK  102  A    between atoms: _268  and  _269
REMARK  103  A    between atoms: _268  and  _271
REMARK  104  A    between atoms: _271  and  _272
REMARK  105  A    between atoms: _275  and  _277
REMARK  106  A    between atoms: _277  and  _278
REMARK  107  A    between atoms: _277  and  _280
REMARK  108  A    between atoms: _283  and  _285
REMARK  109  A    between atoms: _285  and  _286
REMARK  110  A    between atoms: _285  and  _288
REMARK  111  A    between atoms: _288  and  _289
REMARK  112  A    between atoms: _292  and  _294
REMARK  113  A    between atoms: _294  and  _295
REMARK  114  A    between atoms: _298  and  _300
REMARK  115  A    between atoms: _300  and  _301
REMARK  116  A    between atoms: _300  and  _303
REMARK  117  A    between atoms: _303  and  _304
REMARK  118  A    between atoms: _307  and  _309
REMARK  119  A    between atoms: _309  and  _310
REMARK  120  A    between atoms: _309  and  _312
REMARK  121  A    between atoms: _312  and  _313
REMARK  122  A    between atoms: _318  and  _320
REMARK  123  A    between atoms: _320  and  _321
REMARK  124  A    between atoms: _323  and  _325
REMARK  125  A    between atoms: _325  and  _326
REMARK  126  A    between atoms: _325  and  _328
REMARK  127  A    between atoms: _331  and  _333
REMARK  128  A    between atoms: _333  and  _334
REMARK  129  A    between atoms: _337  and  _339
REMARK  130  A    between atoms: _339  and  _340
REMARK  131  A    between atoms: _339  and  _342
REMARK  132  A    between atoms: _342  and  _343
REMARK  133  A    between atoms: _348  and  _350
REMARK  134  A    between atoms: _350  and  _351
REMARK  135  A    between atoms: _350  and  _353
REMARK  136  A    between atoms: _353  and  _354
REMARK  137  A    between atoms: _354  and  _355
REMARK  138  A    between atoms: _355  and  _356
REMARK  139  A    between atoms: _356  and  _357
REMARK  140  A    between atoms: _361  and  _363
REMARK  141  A    between atoms: _363  and  _364
REMARK  142  A    between atoms: _363  and  _366
REMARK  143  A    between atoms: _366  and  _367
REMARK  144  A    between atoms: _370  and  _372
REMARK  145  A    between atoms: _372  and  _373
REMARK  146  A    between atoms: _372  and  _375
REMARK  147  A    between atoms: _375  and  _376
REMARK  148  A    between atoms: _381  and  _383
REMARK  149  A    between atoms: _383  and  _384
REMARK  150  A    between atoms: _386  and  _388
REMARK  151  A    between atoms: _388  and  _389
REMARK  152  A    between atoms: _388  and  _391
REMARK  153  A    between atoms: _391  and  _392
REMARK  154  A    between atoms: _392  and  _393
REMARK  155  A    between atoms: _393  and  _394
REMARK  156  A    between atoms: _394  and  _395
REMARK  157  A    between atoms: _399  and  _401
REMARK  158  A    between atoms: _401  and  _402
REMARK  159  A    between atoms: _401  and  _404
REMARK  160  A    between atoms: _404  and  _405
REMARK  161  A    between atoms: _405  and  _406
REMARK  162  A    between atoms: _406  and  _407
REMARK  163  A    between atoms: _416  and  _418
REMARK  164  A    between atoms: _418  and  _419
REMARK  165  A    between atoms: _418  and  _421
REMARK  166  A    between atoms: _421  and  _422
REMARK  167  A    between atoms: _427  and  _428
REMARK  168  A    between atoms: _430  and  _432
REMARK  169  A    between atoms: _432  and  _433
REMARK  170  A    between atoms: _432  and  _435
REMARK  171  A    between atoms: _435  and  _436
REMARK  172  A    between atoms: _436  and  _437
REMARK  173  A    between atoms: _437  and  _438
REMARK  174  A    between atoms: _438  and  _439
REMARK  175  A    between atoms: _443  and  _445
REMARK  176  A    between atoms: _445  and  _446
REMARK  177  A    between atoms: _445  and  _448
REMARK  178  A    between atoms: _448  and  _449
REMARK  179  A    between atoms: _449  and  _450
REMARK  180  A    between atoms: _455  and  _457
REMARK  181  A    between atoms: _457  and  _458
REMARK  182  A    between atoms: _457  and  _460
REMARK  183  A    between atoms: _460  and  _461
REMARK  184  A    between atoms: _463  and  _465
REMARK  185  A    between atoms: _465  and  _466
REMARK  186  A    between atoms: _465  and  _468
REMARK  187  A    between atoms: _468  and  _469
REMARK  188  A    between atoms: _472  and  _474
REMARK  189  A    between atoms: _474  and  _475
REMARK  190  A    between atoms: _474  and  _477
REMARK  191  A    between atoms: _477  and  _478
REMARK  192  A    between atoms: _478  and  _479
REMARK  193  A    between atoms: _482  and  _484
REMARK  194  A    between atoms: _484  and  _485
REMARK  195  A    between atoms: _488  and  _490
REMARK  196  A    between atoms: _490  and  _491
REMARK  197  A    between atoms: _490  and  _493
REMARK  198  A    between atoms: _493  and  _494
REMARK  199  A    between atoms: _496  and  _498
REMARK  200  A    between atoms: _498  and  _499
REMARK  201  A    between atoms: _501  and  _503
REMARK  202  A    between atoms: _503  and  _504
REMARK  203  A    between atoms: _503  and  _506
REMARK  204  A    between atoms: _506  and  _507
REMARK  205  A    between atoms: _510  and  _512
REMARK  206  A    between atoms: _512  and  _513
REMARK  207  A    between atoms: _515  and  _517
REMARK  208  A    between atoms: _517  and  _518
REMARK  209  A    between atoms: _517  and  _520
REMARK  210  A    between atoms: _520  and  _521
REMARK  211  A    between atoms: _526  and  _528
REMARK  212  A    between atoms: _528  and  _529
REMARK  213  A    between atoms: _528  and  _531
REMARK  214  A    between atoms: _531  and  _532
REMARK  215  A    between atoms: _532  and  _533
REMARK  216  A    between atoms: _540  and  _541
REMARK  217  A    between atoms: _541  and  _557
REMARK  218  A    between atoms: _542  and  _544
REMARK  219  A    between atoms: _544  and  _545
REMARK  220  A    between atoms: _545  and  _546
REMARK  221  A    between atoms: _550  and  _552
REMARK  222  A    between atoms: _552  and  _553
REMARK  223  A    between atoms: _552  and  _560
REMARK  224  A    between atoms: _553  and  _554
REMARK  225  A    between atoms: _554  and  _555
REMARK  226  A    between atoms: _555  and  _556
REMARK  227  A    between atoms: _556  and  _557
REMARK  228  A    between atoms: _562  and  _564
REMARK  229  A    between atoms: _564  and  _565
REMARK  230  A    between atoms: _564  and  _567
REMARK  231  A    between atoms: _567  and  _568
REMARK  232  A    between atoms: _571  and  _573
REMARK  233  A    between atoms: _573  and  _574
REMARK  234  A    between atoms: _576  and  _578
REMARK  235  A    between atoms: _578  and  _579
REMARK  236  A    between atoms: _582  and  _584
REMARK  237  A    between atoms: _584  and  _585
REMARK  238  A    between atoms: _584  and  _587
REMARK  239  A    between atoms: _587  and  _588
REMARK  240  A    between atoms: _593  and  _594
REMARK                            x       y       z     vdW  Elec       q    Type
REMARK                         _______ _______ _______ _____ _____    ______ ____
ROOT
ATOM      1  C   ASP A   2      41.023  18.270  34.040  0.00  0.00    +0.241 C 
ATOM      2  O   ASP A   2      41.192  17.239  34.682  0.00  0.00    -0.273 OA
ATOM      3  N   THR A   3      41.844  19.313  34.137  0.00  0.00    -0.295 N 
ATOM      4  H   THR A   3      41.649  20.165  33.573  0.00  0.00    +0.150 HD
ENDROOT
BRANCH   1   5
ATOM      5  CA  ASP A   2      39.835  18.392  33.065  0.00  0.00    +0.160 C 
BRANCH   5   8
ATOM      6  C   ASN A   1      38.111  17.155  34.322  0.00  0.00    +0.239 C 
ATOM      7  O   ASN A   1      38.017  18.012  35.215  0.00  0.00    -0.274 OA
ATOM      8  N   ASP A   2      38.884  17.291  33.247  0.00  0.00    -0.297 N 
ATOM      9  H   ASP A   2      38.809  16.577  32.495  0.00  0.00    +0.150 HD
BRANCH   6  10
ATOM     10  CA  ASN A   1      37.343  15.852  34.416  0.00  0.00    +0.154 C 
BRANCH  10  11
ATOM     11  N   ASN A   1      38.139  14.943  35.228  0.00  0.00    -0.238 NA
ATOM     12  H   ASN A   1      37.910  14.857  36.239  0.00  0.00    +0.142 HD
ENDBRANCH  10  11
BRANCH  10  13
ATOM     13  CB  ASN A   1      35.956  16.098  35.051  0.00  0.00    +0.111 C 
BRANCH  13  14
ATOM     14  CG  ASN A   1      34.955  16.698  34.070  0.00  0.00    +0.221 C 
ATOM     15  ND2 ASN A   1      33.854  17.252  34.588  0.00  0.00    -0.329 N 
ATOM     16 HD21 ASN A   1      33.717  17.271  35.619  0.00  0.00    +0.145 HD
ATOM     17 HD22 ASN A   1      33.134  17.664  33.960  0.00  0.00    +0.145 HD
ATOM     18  OD1 ASN A   1      35.164  16.650  32.855  0.00  0.00    -0.275 OA
ENDBRANCH  13  14
ENDBRANCH  10  13
ENDBRANCH   6  10
ENDBRANCH   5   8
BRANCH   5  19
ATOM     19  CB  ASP A   2      39.157  19.763  33.127  0.00  0.00    +0.143 C 
BRANCH  19  20
ATOM     20  CG  ASP A   2      39.825  20.765  32.211  0.00  0.00    +0.367 C 
ATOM     21  OD2 ASP A   2      40.987  21.098  32.464  0.00  0.00    -0.246 OA
ATOM     22  OD1 ASP A   2      39.244  21.172  31.194  0.00  0.00    -0.246 OA
ENDBRANCH  19  20
ENDBRANCH   5  19
ENDBRANCH   1   5
BRANCH   3  23
ATOM     23  CA  THR A   3      43.007  19.293  35.012  0.00  0.00    +0.176 C 
BRANCH  23  24
ATOM     24  C   THR A   3      42.673  19.714  36.453  0.00  0.00    +0.243 C 
ATOM     25  O   THR A   3      43.573  19.735  37.313  0.00  0.00    -0.273 OA
ATOM     26  N   HIS A   4      41.411  20.063  36.723  0.00  0.00    -0.298 N 
ATOM     27  H   HIS A   4      40.683  19.997  35.984  0.00  0.00    +0.150 HD
BRANCH  26  28
ATOM     28  CA  HIS A   4      41.057  20.537  38.058  0.00  0.00    +0.143 C 
BRANCH  28  29
ATOM     29  C   HIS A   4      41.391  19.569  39.178  0.00  0.00    +0.227 C 
ATOM     30  O   HIS A   4      41.787  20.007  40.255  0.00  0.00    -0.286 OA
ENDBRANCH  28  29
BRANCH  28  31
ATOM     31  CB  HIS A   4      39.598  21.000  38.161  0.00  0.00    +0.075 C 
BRANCH  31  32
ATOM     32  CG  HIS A   4      39.135  21.872  37.014  0.00  0.00    +0.082 A 
ATOM     33  ND1 HIS A   4      37.861  21.868  36.583  0.00  0.00    -0.227 NA
ATOM     34  CE1 HIS A   4      37.729  22.735  35.556  0.00  0.00    +0.199 A 
ATOM     35  NE2 HIS A   4      38.939  23.285  35.310  0.00  0.00    -0.221 NA
ATOM     36  CD2 HIS A   4      39.831  22.774  36.183  0.00  0.00    +0.115 A 
ENDBRANCH  31  32
ENDBRANCH  28  31
ENDBRANCH  26  28
ENDBRANCH  23  24
BRANCH  23  37
ATOM     37  CB  THR A   3      44.106  20.245  34.495  0.00  0.00    +0.137 C 
ATOM     38  CG2 THR A   3      44.610  19.820  33.138  0.00  0.00    +0.034 C 
BRANCH  37  39
ATOM     39  OG1 THR A   3      43.556  21.557  34.389  0.00  0.00    -0.382 OA
ATOM     40  HG1 THR A   3      43.242  21.855  35.279  0.00  0.00    +0.210 HD
ENDBRANCH  37  39
ENDBRANCH  23  37
ENDBRANCH   3  23
TORSDOF 16
REMARK  Name = ../refined-set-2016/3sym/3sym_pocket.pdb
REMARK  240 active torsions:
REMARK  status: ('A' for Active; 'I' for Inactive)
REMARK    1  A    between atoms: _1  and  _3
REMARK    2  A    between atoms: _3  and  _4
REMARK    3  A    between atoms: _3  and  _6
REMARK    4  A    between atoms: _6  and  _7
REMARK    5  A    between atoms: _12  and  _13
REMARK    6  A    between atoms: _15  and  _17
REMARK    7  A    between atoms: _17  and  _18
REMARK    8  A    between atoms: _17  and  _20
REMARK    9  A    between atoms: _20  and  _21
REMARK   10  A    between atoms: _21  and  _22
REMARK   11  A    between atoms: _25  and  _27
REMARK   12  A    between atoms: _27  and  _28
REMARK   13  A    between atoms: _27  and  _30
REMARK   14  A    between atoms: _30  and  _31
REMARK   15  A    between atoms: _36  and  _37
REMARK   16  A    between atoms: _39  and  _41
REMARK   17  A    between atoms: _41  and  _42
REMARK   18  A    between atoms: _44  and  _46
REMARK   19  A    between atoms: _46  and  _47
REMARK   20  A    between atoms: _46  and  _49
REMARK   21  A    between atoms: _49  and  _50
REMARK   22  A    between atoms: _55  and  _57
REMARK   23  A    between atoms: _57  and  _58
REMARK   24  A    between atoms: _60  and  _62
REMARK   25  A    between atoms: _62  and  _63
REMARK   26  A    between atoms: _65  and  _67
REMARK   27  A    between atoms: _67  and  _68
REMARK   28  A    between atoms: _67  and  _70
REMARK   29  A    between atoms: _70  and  _71
REMARK   30  A    between atoms: _74  and  _76
REMARK   31  A    between atoms: _76  and  _77
REMARK   32  A    between atoms: _79  and  _81
REMARK   33  A    between atoms: _81  and  _82
REMARK   34  A    between atoms: _81  and  _84
REMARK   35  A    between atoms: _85  and  _86
REMARK   36  A    between atoms: _86  and  _87
REMARK   37  A    between atoms: _96  and  _98
REMARK   38  A    between atoms: _98  and  _99
REMARK   39  A    between atoms: _98  and  _101
REMARK   40  A    between atoms: _101  and  _102
REMARK   41  A    between atoms: _105  and  _107
REMARK   42  A    between atoms: _107  and  _108
REMARK   43  A    between atoms: _111  and  _113
REMARK   44  A    between atoms: _113  and  _114
REMARK   45  A    between atoms: _113  and  _116
REMARK   46  A    between atoms: _116  and  _117
REMARK   47  A    between atoms: _123  and  _125
REMARK   48  A    between atoms: _125  and  _126
REMARK   49  A    between atoms: _125  and  _128
REMARK   50  A    between atoms: _128  and  _129
REMARK   51  A    between atoms: _134  and  _136
REMARK   52  A    between atoms: _136  and  _137
REMARK   53  A    between atoms: _136  and  _139
REMARK   54  A    between atoms: _139  and  _140
REMARK   55  A    between atoms: _143  and  _145
REMARK   56  A    between atoms: _145  and  _146
REMARK   57  A    between atoms: _145  and  _148
REMARK   58  A    between atoms: _148  and  _149
REMARK   59  A    between atoms: _154  and  _156
REMARK   60  A    between atoms: _156  and  _157
REMARK   61  A    between atoms: _156  and  _159
REMARK   62  A    between atoms: _159  and  _160
REMARK   63  A    between atoms: _166  and  _168
REMARK   64  A    between atoms: _168  and  _169
REMARK   65  A    between atoms: _168  and  _171
REMARK   66  A    between atoms: _171  and  _172
REMARK   67  A    between atoms: _178  and  _180
REMARK   68  A    between atoms: _180  and  _181
REMARK   69  A    between atoms: _180  and  _183
REMARK   70  A    between atoms: _183  and  _184
REMARK   71  A    between atoms: _184  and  _185
REMARK   72  A    between atoms: _185  and  _186
REMARK   73  A    between atoms: _195  and  _197
REMARK   74  A    between atoms: _197  and  _198
REMARK   75  A    between atoms: _197  and  _200
REMARK   76  A    between atoms: _200  and  _201
REMARK   77  A    between atoms: _206  and  _208
REMARK   78  A    between atoms: _208  and  _209
REMARK   79  A    between atoms: _208  and  _211
REMARK   80  A    between atoms: _211  and  _212
REMARK   81  A    between atoms: _215  and  _217
REMARK   82  A    between atoms: _217  and  _218
REMARK   83  A    between atoms: _217  and  _220
REMARK   84  A    between atoms: _220  and  _221
REMARK   85  A    between atoms: _224  and  _226
REMARK   86  A    between atoms: _226  and  _227
REMARK   87  A    between atoms: _226  and  _229
REMARK   88  A    between atoms: _229  and  _230
REMARK   89  A    between atoms: _235  and  _237
REMARK   90  A    between atoms: _237  and  _238
REMARK   91  A    between atoms: _237  and  _240
REMARK   92  A    between atoms: _240  and  _241
REMARK   93  A    between atoms: _244  and  _246
REMARK   94  A    between atoms: _246  and  _247
REMARK   95  A    between atoms: _246  and  _249
REMARK   96  A    between atoms: _249  and  _250
REMARK   97  A    between atoms: _255  and  _257
REMARK   98  A    between atoms: _257  and  _258
REMARK   99  A    between atoms: _257  and  _260
REMARK  100  A    between atoms: _260  and  _261
REMARK  101  A    between atoms: _266  and  _268
REMARK  102  A    between atoms: _268  and  _269
REMARK  103  A    between atoms: _268  and  _271
REMARK  104  A    between atoms: _271  and  _272
REMARK  105  A    between atoms: _275  and  _277
REMARK  106  A    between atoms: _277  and  _278
REMARK  107  A    between atoms: _277  and  _280
REMARK  108  A    between atoms: _283  and  _285
REMARK  109  A    between atoms: _285  and  _286
REMARK  110  A    between atoms: _285  and  _288
REMARK  111  A    between atoms: _288  and  _289
REMARK  112  A    between atoms: _292  and  _294
REMARK  113  A    between atoms: _294  and  _295
REMARK  114  A    between atoms: _298  and  _300
REMARK  115  A    between atoms: _300  and  _301
REMARK  116  A    between atoms: _300  and  _303
REMARK  117  A    between atoms: _303  and  _304
REMARK  118  A    between atoms: _307  and  _309
REMARK  119  A    between atoms: _309  and  _310
REMARK  120  A    between atoms: _309  and  _312
REMARK  121  A    between atoms: _312  and  _313
REMARK  122  A    between atoms: _318  and  _320
REMARK  123  A    between atoms: _320  and  _321
REMARK  124  A    between atoms: _323  and  _325
REMARK  125  A    between atoms: _325  and  _326
REMARK  126  A    between atoms: _325  and  _328
REMARK  127  A    between atoms: _331  and  _333
REMARK  128  A    between atoms: _333  and  _334
REMARK  129  A    between atoms: _337  and  _339
REMARK  130  A    between atoms: _339  and  _340
REMARK  131  A    between atoms: _339  and  _342
REMARK  132  A    between atoms: _342  and  _343
REMARK  133  A    between atoms: _348  and  _350
REMARK  134  A    between atoms: _350  and  _351
REMARK  135  A    between atoms: _350  and  _353
REMARK  136  A    between atoms: _353  and  _354
REMARK  137  A    between atoms: _354  and  _355
REMARK  138  A    between atoms: _355  and  _356
REMARK  139  A    between atoms: _356  and  _357
REMARK  140  A    between atoms: _361  and  _363
REMARK  141  A    between atoms: _363  and  _364
REMARK  142  A    between atoms: _363  and  _366
REMARK  143  A    between atoms: _366  and  _367
REMARK  144  A    between atoms: _370  and  _372
REMARK  145  A    between atoms: _372  and  _373
REMARK  146  A    between atoms: _372  and  _375
REMARK  147  A    between atoms: _375  and  _376
REMARK  148  A    between atoms: _381  and  _383
REMARK  149  A    between atoms: _383  and  _384
REMARK  150  A    between atoms: _386  and  _388
REMARK  151  A    between atoms: _388  and  _389
REMARK  152  A    between atoms: _388  and  _391
REMARK  153  A    between atoms: _391  and  _392
REMARK  154  A    between atoms: _392  and  _393
REMARK  155  A    between atoms: _393  and  _394
REMARK  156  A    between atoms: _394  and  _395
REMARK  157  A    between atoms: _399  and  _401
REMARK  158  A    between atoms: _401  and  _402
REMARK  159  A    between atoms: _401  and  _404
REMARK  160  A    between atoms: _404  and  _405
REMARK  161  A    between atoms: _405  and  _406
REMARK  162  A    between atoms: _406  and  _407
REMARK  163  A    between atoms: _416  and  _418
REMARK  164  A    between atoms: _418  and  _419
REMARK  165  A    between atoms: _418  and  _421
REMARK  166  A    between atoms: _421  and  _422
REMARK  167  A    between atoms: _427  and  _428
REMARK  168  A    between atoms: _430  and  _432
REMARK  169  A    between atoms: _432  and  _433
REMARK  170  A    between atoms: _432  and  _435
REMARK  171  A    between atoms: _435  and  _436
REMARK  172  A    between atoms: _436  and  _437
REMARK  173  A    between atoms: _437  and  _438
REMARK  174  A    between atoms: _438  and  _439
REMARK  175  A    between atoms: _443  and  _445
REMARK  176  A    between atoms: _445  and  _446
REMARK  177  A    between atoms: _445  and  _448
REMARK  178  A    between atoms: _448  and  _449
REMARK  179  A    between atoms: _449  and  _450
REMARK  180  A    between atoms: _455  and  _457
REMARK  181  A    between atoms: _457  and  _458
REMARK  182  A    between atoms: _457  and  _460
REMARK  183  A    between atoms: _460  and  _461
REMARK  184  A    between atoms: _463  and  _465
REMARK  185  A    between atoms: _465  and  _466
REMARK  186  A    between atoms: _465  and  _468
REMARK  187  A    between atoms: _468  and  _469
REMARK  188  A    between atoms: _472  and  _474
REMARK  189  A    between atoms: _474  and  _475
REMARK  190  A    between atoms: _474  and  _477
REMARK  191  A    between atoms: _477  and  _478
REMARK  192  A    between atoms: _478  and  _479
REMARK  193  A    between atoms: _482  and  _484
REMARK  194  A    between atoms: _484  and  _485
REMARK  195  A    between atoms: _488  and  _490
REMARK  196  A    between atoms: _490  and  _491
REMARK  197  A    between atoms: _490  and  _493
REMARK  198  A    between atoms: _493  and  _494
REMARK  199  A    between atoms: _496  and  _498
REMARK  200  A    between atoms: _498  and  _499
REMARK  201  A    between atoms: _501  and  _503
REMARK  202  A    between atoms: _503  and  _504
REMARK  203  A    between atoms: _503  and  _506
REMARK  204  A    between atoms: _506  and  _507
REMARK  205  A    between atoms: _510  and  _512
REMARK  206  A    between atoms: _512  and  _513
REMARK  207  A    between atoms: _515  and  _517
REMARK  208  A    between atoms: _517  and  _518
REMARK  209  A    between atoms: _517  and  _520
REMARK  210  A    between atoms: _520  and  _521
REMARK  211  A    between atoms: _526  and  _528
REMARK  212  A    between atoms: _528  and  _529
REMARK  213  A    between atoms: _528  and  _531
REMARK  214  A    between atoms: _531  and  _532
REMARK  215  A    between atoms: _532  and  _533
REMARK  216  A    between atoms: _540  and  _541
REMARK  217  A    between atoms: _541  and  _557
REMARK  218  A    between atoms: _542  and  _544
REMARK  219  A    between atoms: _544  and  _545
REMARK  220  A    between atoms: _545  and  _546
REMARK  221  A    between atoms: _550  and  _552
REMARK  222  A    between atoms: _552  and  _553
REMARK  223  A    between atoms: _552  and  _560
REMARK  224  A    between atoms: _553  and  _554
REMARK  225  A    between atoms: _554  and  _555
REMARK  226  A    between atoms: _555  and  _556
REMARK  227  A    between atoms: _556  and  _557
REMARK  228  A    between atoms: _562  and  _564
REMARK  229  A    between atoms: _564  and  _565
REMARK  230  A    between atoms: _564  and  _567
REMARK  231  A    between atoms: _567  and  _568
REMARK  232  A    between atoms: _571  and  _573
REMARK  233  A    between atoms: _573  and  _574
REMARK  234  A    between atoms: _576  and  _578
REMARK  235  A    between atoms: _578  and  _579
REMARK  236  A    between atoms: _582  and  _584
REMARK  237  A    between atoms: _584  and  _585
REMARK  238  A    between atoms: _584  and  _587
REMARK  239  A    between atoms: _587  and  _588
REMARK  240  A    between atoms: _593  and  _594
REMARK                            x       y       z     vdW  Elec       q    Type
REMARK                         _______ _______ _______ _____ _____    ______ ____
ROOT
ATOM      1  CA  HIS A   3      37.867  20.250  27.260  0.00  0.00    +0.155 C 
ENDROOT
BRANCH   1   3
ATOM      2  C   ASN A   2      39.349  18.305  27.392  0.00  0.00    +0.241 C 
ATOM      3  N   HIS A   3      39.104  19.579  27.689  0.00  0.00    -0.297 N 
ATOM      4  H   HIS A   3      39.806  20.114  28.239  0.00  0.00    +0.150 HD
ATOM      5  O   ASN A   2      38.617  17.637  26.640  0.00  0.00    -0.273 OA
BRANCH   2   6
ATOM      6  CA  ASN A   2      40.595  17.684  28.002  0.00  0.00    +0.158 C 
BRANCH   6   9
ATOM      7  C   THR A   1      40.009  15.850  29.504  0.00  0.00    +0.241 C 
ATOM      8  O   THR A   1      39.871  16.621  30.463  0.00  0.00    -0.274 OA
ATOM      9  N   ASN A   2      40.368  16.269  28.293  0.00  0.00    -0.297 N 
ATOM     10  H   ASN A   2      40.491  15.571  27.532  0.00  0.00    +0.150 HD
BRANCH   7  11
ATOM     11  CA  THR A   1      39.765  14.349  29.666  0.00  0.00    +0.172 C 
BRANCH  11  12
ATOM     12  N   THR A   1      40.609  13.782  30.731  0.00  0.00    -0.236 NA
ATOM     13  H   THR A   1      40.384  14.017  31.719  0.00  0.00    +0.142 HD
ENDBRANCH  11  12
BRANCH  11  14
ATOM     14  CB  THR A   1      38.271  14.149  29.979  0.00  0.00    +0.135 C 
ATOM     15  CG2 THR A   1      37.382  14.690  28.867  0.00  0.00    +0.034 C 
BRANCH  14  16
ATOM     16  OG1 THR A   1      37.995  12.760  30.168  0.00  0.00    -0.383 OA
ATOM     17  HG1 THR A   1      38.225  12.264  29.343  0.00  0.00    +0.210 HD
ENDBRANCH  14  16
ENDBRANCH  11  14
ENDBRANCH   7  11
ENDBRANCH   6   9
BRANCH   6  18
ATOM     18  CB  ASN A   2      41.819  17.823  27.073  0.00  0.00    +0.114 C 
BRANCH  18  19
ATOM     19  CG  ASN A   2      41.990  19.232  26.513  0.00  0.00    +0.222 C 
ATOM     20  ND2 ASN A   2      42.852  20.037  27.148  0.00  0.00    -0.329 N 
ATOM     21 HD21 ASN A   2      43.371  19.690  27.980  0.00  0.00    +0.145 HD
ATOM     22 HD22 ASN A   2      43.002  21.009  26.809  0.00  0.00    +0.145 HD
ATOM     23  OD1 ASN A   2      41.353  19.592  25.528  0.00  0.00    -0.275 OA
ENDBRANCH  18  19
ENDBRANCH   6  18
ENDBRANCH   2   6
ENDBRANCH   1   3
BRANCH   1  24
ATOM     24  C   HIS A   3      38.063  21.540  26.496  0.00  0.00    +0.241 C 
ATOM     25  O   HIS A   3      37.087  22.236  26.193  0.00  0.00    -0.273 OA
ATOM     26  N   THR A   4      39.308  21.893  26.184  0.00  0.00    -0.295 N 
ATOM     27  H   THR A   4      40.097  21.273  26.457  0.00  0.00    +0.150 HD
BRANCH  26  28
ATOM     28  CA  THR A   4      39.590  23.139  25.463  0.00  0.00    +0.176 C 
BRANCH  28  29
ATOM     29  C   THR A   4      41.019  23.192  24.944  0.00  0.00    +0.243 C 
ATOM     30  O   THR A   4      41.891  22.485  25.445  0.00  0.00    -0.273 OA
ATOM     31  N   VAL A   5      41.253  24.043  23.951  0.00  0.00    -0.297 N 
ATOM     32  H   VAL A   5      40.454  24.544  23.512  0.00  0.00    +0.150 HD
BRANCH  31  33
ATOM     33  CA  VAL A   5      42.607  24.290  23.462  0.00  0.00    +0.149 C 
BRANCH  33  34
ATOM     34  C   VAL A   5      42.994  25.751  23.638  0.00  0.00    +0.241 C 
ATOM     35  N   LEU A   6      42.082  26.582  24.134  0.00  0.00    -0.298 N 
ATOM     36  H   LEU A   6      41.122  26.233  24.329  0.00  0.00    +0.150 HD
ATOM     37  O   VAL A   5      44.093  26.124  23.307  0.00  0.00    -0.273 OA
BRANCH  35  38
ATOM     38  CA  LEU A   6      42.411  27.974  24.407  0.00  0.00    +0.137 C 
BRANCH  38  39
ATOM     39  C   LEU A   6      43.484  28.044  25.486  0.00  0.00    +0.227 C 
ATOM     40  O   LEU A   6      43.302  27.483  26.563  0.00  0.00    -0.286 OA
ENDBRANCH  38  39
BRANCH  38  41
ATOM     41  CB  LEU A   6      41.188  28.748  24.861  0.00  0.00    +0.028 C 
BRANCH  41  42
ATOM     42  CG  LEU A   6      40.033  28.942  23.883  0.00  0.00    +0.002 C 
ATOM     43  CD2 LEU A   6      38.999  29.860  24.546  0.00  0.00    +0.000 C 
ATOM     44  CD1 LEU A   6      40.515  29.493  22.546  0.00  0.00    +0.000 C 
ENDBRANCH  41  42
ENDBRANCH  38  41
ENDBRANCH  35  38
ENDBRANCH  33  34
BRANCH  33  45
ATOM     45  CB  VAL A   5      42.781  23.892  21.977  0.00  0.00    +0.027 C 
ATOM     46  CG2 VAL A   5      42.521  22.390  21.798  0.00  0.00    +0.002 C 
ATOM     47  CG1 VAL A   5      41.879  24.751  21.065  0.00  0.00    +0.002 C 
ENDBRANCH  33  45
ENDBRANCH  31  33
ENDBRANCH  28  29
BRANCH  28  48
ATOM     48  CB  THR A   4      39.398  24.380  26.359  0.00  0.00    +0.137 C 
ATOM     49  CG2 THR A   4      40.328  24.324  27.549  0.00  0.00    +0.034 C 
BRANCH  48  50
ATOM     50  OG1 THR A   4      39.687  25.562  25.598  0.00  0.00    -0.382 OA
ATOM     51  HG1 THR A   4      39.564  26.360  26.171  0.00  0.00    +0.210 HD
ENDBRANCH  48  50
ENDBRANCH  28  48
ENDBRANCH  26  28
ENDBRANCH   1  24
BRANCH   1  52
ATOM     52  CB  HIS A   3      36.987  20.538  28.467  0.00  0.00    +0.076 C 
BRANCH  52  53
ATOM     53  CG  HIS A   3      36.477  19.319  29.178  0.00  0.00    +0.082 A 
ATOM     54  CD2 HIS A   3      36.984  18.626  30.281  0.00  0.00    +0.115 A 
ATOM     55  NE2 HIS A   3      36.121  17.617  30.551  0.00  0.00    -0.221 NA
ATOM     56  CE1 HIS A   3      35.105  17.661  29.658  0.00  0.00    +0.199 A 
ATOM     57  ND1 HIS A   3      35.333  18.692  28.821  0.00  0.00    -0.227 NA
ENDBRANCH  52  53
ENDBRANCH   1  52
TORSDOF 23
REMARK  Name = ../refined-set-2016/3sym/3sym_pocket.pdb
REMARK  240 active torsions:
REMARK  status: ('A' for Active; 'I' for Inactive)
REMARK    1  A    between atoms: _1  and  _3
REMARK    2  A    between atoms: _3  and  _4
REMARK    3  A    between atoms: _3  and  _6
REMARK    4  A    between atoms: _6  and  _7
REMARK    5  A    between atoms: _12  and  _13
REMARK    6  A    between atoms: _15  and  _17
REMARK    7  A    between atoms: _17  and  _18
REMARK    8  A    between atoms: _17  and  _20
REMARK    9  A    between atoms: _20  and  _21
REMARK   10  A    between atoms: _21  and  _22
REMARK   11  A    between atoms: _25  and  _27
REMARK   12  A    between atoms: _27  and  _28
REMARK   13  A    between atoms: _27  and  _30
REMARK   14  A    between atoms: _30  and  _31
REMARK   15  A    between atoms: _36  and  _37
REMARK   16  A    between atoms: _39  and  _41
REMARK   17  A    between atoms: _41  and  _42
REMARK   18  A    between atoms: _44  and  _46
REMARK   19  A    between atoms: _46  and  _47
REMARK   20  A    between atoms: _46  and  _49
REMARK   21  A    between atoms: _49  and  _50
REMARK   22  A    between atoms: _55  and  _57
REMARK   23  A    between atoms: _57  and  _58
REMARK   24  A    between atoms: _60  and  _62
REMARK   25  A    between atoms: _62  and  _63
REMARK   26  A    between atoms: _65  and  _67
REMARK   27  A    between atoms: _67  and  _68
REMARK   28  A    between atoms: _67  and  _70
REMARK   29  A    between atoms: _70  and  _71
REMARK   30  A    between atoms: _74  and  _76
REMARK   31  A    between atoms: _76  and  _77
REMARK   32  A    between atoms: _79  and  _81
REMARK   33  A    between atoms: _81  and  _82
REMARK   34  A    between atoms: _81  and  _84
REMARK   35  A    between atoms: _85  and  _86
REMARK   36  A    between atoms: _86  and  _87
REMARK   37  A    between atoms: _96  and  _98
REMARK   38  A    between atoms: _98  and  _99
REMARK   39  A    between atoms: _98  and  _101
REMARK   40  A    between atoms: _101  and  _102
REMARK   41  A    between atoms: _105  and  _107
REMARK   42  A    between atoms: _107  and  _108
REMARK   43  A    between atoms: _111  and  _113
REMARK   44  A    between atoms: _113  and  _114
REMARK   45  A    between atoms: _113  and  _116
REMARK   46  A    between atoms: _116  and  _117
REMARK   47  A    between atoms: _123  and  _125
REMARK   48  A    between atoms: _125  and  _126
REMARK   49  A    between atoms: _125  and  _128
REMARK   50  A    between atoms: _128  and  _129
REMARK   51  A    between atoms: _134  and  _136
REMARK   52  A    between atoms: _136  and  _137
REMARK   53  A    between atoms: _136  and  _139
REMARK   54  A    between atoms: _139  and  _140
REMARK   55  A    between atoms: _143  and  _145
REMARK   56  A    between atoms: _145  and  _146
REMARK   57  A    between atoms: _145  and  _148
REMARK   58  A    between atoms: _148  and  _149
REMARK   59  A    between atoms: _154  and  _156
REMARK   60  A    between atoms: _156  and  _157
REMARK   61  A    between atoms: _156  and  _159
REMARK   62  A    between atoms: _159  and  _160
REMARK   63  A    between atoms: _166  and  _168
REMARK   64  A    between atoms: _168  and  _169
REMARK   65  A    between atoms: _168  and  _171
REMARK   66  A    between atoms: _171  and  _172
REMARK   67  A    between atoms: _178  and  _180
REMARK   68  A    between atoms: _180  and  _181
REMARK   69  A    between atoms: _180  and  _183
REMARK   70  A    between atoms: _183  and  _184
REMARK   71  A    between atoms: _184  and  _185
REMARK   72  A    between atoms: _185  and  _186
REMARK   73  A    between atoms: _195  and  _197
REMARK   74  A    between atoms: _197  and  _198
REMARK   75  A    between atoms: _197  and  _200
REMARK   76  A    between atoms: _200  and  _201
REMARK   77  A    between atoms: _206  and  _208
REMARK   78  A    between atoms: _208  and  _209
REMARK   79  A    between atoms: _208  and  _211
REMARK   80  A    between atoms: _211  and  _212
REMARK   81  A    between atoms: _215  and  _217
REMARK   82  A    between atoms: _217  and  _218
REMARK   83  A    between atoms: _217  and  _220
REMARK   84  A    between atoms: _220  and  _221
REMARK   85  A    between atoms: _224  and  _226
REMARK   86  A    between atoms: _226  and  _227
REMARK   87  A    between atoms: _226  and  _229
REMARK   88  A    between atoms: _229  and  _230
REMARK   89  A    between atoms: _235  and  _237
REMARK   90  A    between atoms: _237  and  _238
REMARK   91  A    between atoms: _237  and  _240
REMARK   92  A    between atoms: _240  and  _241
REMARK   93  A    between atoms: _244  and  _246
REMARK   94  A    between atoms: _246  and  _247
REMARK   95  A    between atoms: _246  and  _249
REMARK   96  A    between atoms: _249  and  _250
REMARK   97  A    between atoms: _255  and  _257
REMARK   98  A    between atoms: _257  and  _258
REMARK   99  A    between atoms: _257  and  _260
REMARK  100  A    between atoms: _260  and  _261
REMARK  101  A    between atoms: _266  and  _268
REMARK  102  A    between atoms: _268  and  _269
REMARK  103  A    between atoms: _268  and  _271
REMARK  104  A    between atoms: _271  and  _272
REMARK  105  A    between atoms: _275  and  _277
REMARK  106  A    between atoms: _277  and  _278
REMARK  107  A    between atoms: _277  and  _280
REMARK  108  A    between atoms: _283  and  _285
REMARK  109  A    between atoms: _285  and  _286
REMARK  110  A    between atoms: _285  and  _288
REMARK  111  A    between atoms: _288  and  _289
REMARK  112  A    between atoms: _292  and  _294
REMARK  113  A    between atoms: _294  and  _295
REMARK  114  A    between atoms: _298  and  _300
REMARK  115  A    between atoms: _300  and  _301
REMARK  116  A    between atoms: _300  and  _303
REMARK  117  A    between atoms: _303  and  _304
REMARK  118  A    between atoms: _307  and  _309
REMARK  119  A    between atoms: _309  and  _310
REMARK  120  A    between atoms: _309  and  _312
REMARK  121  A    between atoms: _312  and  _313
REMARK  122  A    between atoms: _318  and  _320
REMARK  123  A    between atoms: _320  and  _321
REMARK  124  A    between atoms: _323  and  _325
REMARK  125  A    between atoms: _325  and  _326
REMARK  126  A    between atoms: _325  and  _328
REMARK  127  A    between atoms: _331  and  _333
REMARK  128  A    between atoms: _333  and  _334
REMARK  129  A    between atoms: _337  and  _339
REMARK  130  A    between atoms: _339  and  _340
REMARK  131  A    between atoms: _339  and  _342
REMARK  132  A    between atoms: _342  and  _343
REMARK  133  A    between atoms: _348  and  _350
REMARK  134  A    between atoms: _350  and  _351
REMARK  135  A    between atoms: _350  and  _353
REMARK  136  A    between atoms: _353  and  _354
REMARK  137  A    between atoms: _354  and  _355
REMARK  138  A    between atoms: _355  and  _356
REMARK  139  A    between atoms: _356  and  _357
REMARK  140  A    between atoms: _361  and  _363
REMARK  141  A    between atoms: _363  and  _364
REMARK  142  A    between atoms: _363  and  _366
REMARK  143  A    between atoms: _366  and  _367
REMARK  144  A    between atoms: _370  and  _372
REMARK  145  A    between atoms: _372  and  _373
REMARK  146  A    between atoms: _372  and  _375
REMARK  147  A    between atoms: _375  and  _376
REMARK  148  A    between atoms: _381  and  _383
REMARK  149  A    between atoms: _383  and  _384
REMARK  150  A    between atoms: _386  and  _388
REMARK  151  A    between atoms: _388  and  _389
REMARK  152  A    between atoms: _388  and  _391
REMARK  153  A    between atoms: _391  and  _392
REMARK  154  A    between atoms: _392  and  _393
REMARK  155  A    between atoms: _393  and  _394
REMARK  156  A    between atoms: _394  and  _395
REMARK  157  A    between atoms: _399  and  _401
REMARK  158  A    between atoms: _401  and  _402
REMARK  159  A    between atoms: _401  and  _404
REMARK  160  A    between atoms: _404  and  _405
REMARK  161  A    between atoms: _405  and  _406
REMARK  162  A    between atoms: _406  and  _407
REMARK  163  A    between atoms: _416  and  _418
REMARK  164  A    between atoms: _418  and  _419
REMARK  165  A    between atoms: _418  and  _421
REMARK  166  A    between atoms: _421  and  _422
REMARK  167  A    between atoms: _427  and  _428
REMARK  168  A    between atoms: _430  and  _432
REMARK  169  A    between atoms: _432  and  _433
REMARK  170  A    between atoms: _432  and  _435
REMARK  171  A    between atoms: _435  and  _436
REMARK  172  A    between atoms: _436  and  _437
REMARK  173  A    between atoms: _437  and  _438
REMARK  174  A    between atoms: _438  and  _439
REMARK  175  A    between atoms: _443  and  _445
REMARK  176  A    between atoms: _445  and  _446
REMARK  177  A    between atoms: _445  and  _448
REMARK  178  A    between atoms: _448  and  _449
REMARK  179  A    between atoms: _449  and  _450
REMARK  180  A    between atoms: _455  and  _457
REMARK  181  A    between atoms: _457  and  _458
REMARK  182  A    between atoms: _457  and  _460
REMARK  183  A    between atoms: _460  and  _461
REMARK  184  A    between atoms: _463  and  _465
REMARK  185  A    between atoms: _465  and  _466
REMARK  186  A    between atoms: _465  and  _468
REMARK  187  A    between atoms: _468  and  _469
REMARK  188  A    between atoms: _472  and  _474
REMARK  189  A    between atoms: _474  and  _475
REMARK  190  A    between atoms: _474  and  _477
REMARK  191  A    between atoms: _477  and  _478
REMARK  192  A    between atoms: _478  and  _479
REMARK  193  A    between atoms: _482  and  _484
REMARK  194  A    between atoms: _484  and  _485
REMARK  195  A    between atoms: _488  and  _490
REMARK  196  A    between atoms: _490  and  _491
REMARK  197  A    between atoms: _490  and  _493
REMARK  198  A    between atoms: _493  and  _494
REMARK  199  A    between atoms: _496  and  _498
REMARK  200  A    between atoms: _498  and  _499
REMARK  201  A    between atoms: _501  and  _503
REMARK  202  A    between atoms: _503  and  _504
REMARK  203  A    between atoms: _503  and  _506
REMARK  204  A    between atoms: _506  and  _507
REMARK  205  A    between atoms: _510  and  _512
REMARK  206  A    between atoms: _512  and  _513
REMARK  207  A    between atoms: _515  and  _517
REMARK  208  A    between atoms: _517  and  _518
REMARK  209  A    between atoms: _517  and  _520
REMARK  210  A    between atoms: _520  and  _521
REMARK  211  A    between atoms: _526  and  _528
REMARK  212  A    between atoms: _528  and  _529
REMARK  213  A    between atoms: _528  and  _531
REMARK  214  A    between atoms: _531  and  _532
REMARK  215  A    between atoms: _532  and  _533
REMARK  216  A    between atoms: _540  and  _541
REMARK  217  A    between atoms: _541  and  _557
REMARK  218  A    between atoms: _542  and  _544
REMARK  219  A    between atoms: _544  and  _545
REMARK  220  A    between atoms: _545  and  _546
REMARK  221  A    between atoms: _550  and  _552
REMARK  222  A    between atoms: _552  and  _553
REMARK  223  A    between atoms: _552  and  _560
REMARK  224  A    between atoms: _553  and  _554
REMARK  225  A    between atoms: _554  and  _555
REMARK  226  A    between atoms: _555  and  _556
REMARK  227  A    between atoms: _556  and  _557
REMARK  228  A    between atoms: _562  and  _564
REMARK  229  A    between atoms: _564  and  _565
REMARK  230  A    between atoms: _564  and  _567
REMARK  231  A    between atoms: _567  and  _568
REMARK  232  A    between atoms: _571  and  _573
REMARK  233  A    between atoms: _573  and  _574
REMARK  234  A    between atoms: _576  and  _578
REMARK  235  A    between atoms: _578  and  _579
REMARK  236  A    between atoms: _582  and  _584
REMARK  237  A    between atoms: _584  and  _585
REMARK  238  A    between atoms: _584  and  _587
REMARK  239  A    between atoms: _587  and  _588
REMARK  240  A    between atoms: _593  and  _594
REMARK                            x       y       z     vdW  Elec       q    Type
REMARK                         _______ _______ _______ _____ _____    ______ ____
ROOT
ATOM      1  C   ALA A   1      42.817  27.215  30.659  0.00  0.00    +0.238 C 
ATOM      2  O   ALA A   1      42.351  26.668  31.657  0.00  0.00    -0.274 OA
ATOM      3  N   LEU A   2      44.049  26.968  30.198  0.00  0.00    -0.298 N 
ATOM      4  H   LEU A   2      44.389  27.505  29.375  0.00  0.00    +0.150 HD
ENDROOT
BRANCH   1   5
ATOM      5  CA  ALA A   1      41.983  28.253  29.902  0.00  0.00    +0.145 C 
ATOM      6  CB  ALA A   1      40.908  27.573  29.071  0.00  0.00    +0.028 C 
BRANCH   5   7
ATOM      7  N   ALA A   1      42.786  29.176  29.083  0.00  0.00    -0.238 NA
ATOM      8  H   ALA A   1      42.945  28.950  28.080  0.00  0.00    +0.142 HD
ENDBRANCH   5   7
ENDBRANCH   1   5
BRANCH   3   9
ATOM      9  CA  LEU A   2      44.938  25.974  30.802  0.00  0.00    +0.137 C 
BRANCH   9  10
ATOM     10  C   LEU A   2      45.476  26.372  32.178  0.00  0.00    +0.227 C 
ATOM     11  O   LEU A   2      45.903  27.497  32.387  0.00  0.00    -0.286 OA
ENDBRANCH   9  10
BRANCH   9  12
ATOM     12  CB  LEU A   2      46.106  25.652  29.870  0.00  0.00    +0.028 C 
BRANCH  12  13
ATOM     13  CG  LEU A   2      45.791  25.129  28.459  0.00  0.00    +0.002 C 
ATOM     14  CD2 LEU A   2      44.671  24.087  28.421  0.00  0.00    +0.000 C 
ATOM     15  CD1 LEU A   2      47.071  24.567  27.855  0.00  0.00    +0.000 C 
ENDBRANCH  12  13
ENDBRANCH   9  12
ENDBRANCH   3   9
TORSDOF 6
REMARK  Name = ../refined-set-2016/3sym/3sym_pocket.pdb
REMARK  240 active torsions:
REMARK  status: ('A' for Active; 'I' for Inactive)
REMARK    1  A    between atoms: _1  and  _3
REMARK    2  A    between atoms: _3  and  _4
REMARK    3  A    between atoms: _3  and  _6
REMARK    4  A    between atoms: _6  and  _7
REMARK    5  A    between atoms: _12  and  _13
REMARK    6  A    between atoms: _15  and  _17
REMARK    7  A    between atoms: _17  and  _18
REMARK    8  A    between atoms: _17  and  _20
REMARK    9  A    between atoms: _20  and  _21
REMARK   10  A    between atoms: _21  and  _22
REMARK   11  A    between atoms: _25  and  _27
REMARK   12  A    between atoms: _27  and  _28
REMARK   13  A    between atoms: _27  and  _30
REMARK   14  A    between atoms: _30  and  _31
REMARK   15  A    between atoms: _36  and  _37
REMARK   16  A    between atoms: _39  and  _41
REMARK   17  A    between atoms: _41  and  _42
REMARK   18  A    between atoms: _44  and  _46
REMARK   19  A    between atoms: _46  and  _47
REMARK   20  A    between atoms: _46  and  _49
REMARK   21  A    between atoms: _49  and  _50
REMARK   22  A    between atoms: _55  and  _57
REMARK   23  A    between atoms: _57  and  _58
REMARK   24  A    between atoms: _60  and  _62
REMARK   25  A    between atoms: _62  and  _63
REMARK   26  A    between atoms: _65  and  _67
REMARK   27  A    between atoms: _67  and  _68
REMARK   28  A    between atoms: _67  and  _70
REMARK   29  A    between atoms: _70  and  _71
REMARK   30  A    between atoms: _74  and  _76
REMARK   31  A    between atoms: _76  and  _77
REMARK   32  A    between atoms: _79  and  _81
REMARK   33  A    between atoms: _81  and  _82
REMARK   34  A    between atoms: _81  and  _84
REMARK   35  A    between atoms: _85  and  _86
REMARK   36  A    between atoms: _86  and  _87
REMARK   37  A    between atoms: _96  and  _98
REMARK   38  A    between atoms: _98  and  _99
REMARK   39  A    between atoms: _98  and  _101
REMARK   40  A    between atoms: _101  and  _102
REMARK   41  A    between atoms: _105  and  _107
REMARK   42  A    between atoms: _107  and  _108
REMARK   43  A    between atoms: _111  and  _113
REMARK   44  A    between atoms: _113  and  _114
REMARK   45  A    between atoms: _113  and  _116
REMARK   46  A    between atoms: _116  and  _117
REMARK   47  A    between atoms: _123  and  _125
REMARK   48  A    between atoms: _125  and  _126
REMARK   49  A    between atoms: _125  and  _128
REMARK   50  A    between atoms: _128  and  _129
REMARK   51  A    between atoms: _134  and  _136
REMARK   52  A    between atoms: _136  and  _137
REMARK   53  A    between atoms: _136  and  _139
REMARK   54  A    between atoms: _139  and  _140
REMARK   55  A    between atoms: _143  and  _145
REMARK   56  A    between atoms: _145  and  _146
REMARK   57  A    between atoms: _145  and  _148
REMARK   58  A    between atoms: _148  and  _149
REMARK   59  A    between atoms: _154  and  _156
REMARK   60  A    between atoms: _156  and  _157
REMARK   61  A    between atoms: _156  and  _159
REMARK   62  A    between atoms: _159  and  _160
REMARK   63  A    between atoms: _166  and  _168
REMARK   64  A    between atoms: _168  and  _169
REMARK   65  A    between atoms: _168  and  _171
REMARK   66  A    between atoms: _171  and  _172
REMARK   67  A    between atoms: _178  and  _180
REMARK   68  A    between atoms: _180  and  _181
REMARK   69  A    between atoms: _180  and  _183
REMARK   70  A    between atoms: _183  and  _184
REMARK   71  A    between atoms: _184  and  _185
REMARK   72  A    between atoms: _185  and  _186
REMARK   73  A    between atoms: _195  and  _197
REMARK   74  A    between atoms: _197  and  _198
REMARK   75  A    between atoms: _197  and  _200
REMARK   76  A    between atoms: _200  and  _201
REMARK   77  A    between atoms: _206  and  _208
REMARK   78  A    between atoms: _208  and  _209
REMARK   79  A    between atoms: _208  and  _211
REMARK   80  A    between atoms: _211  and  _212
REMARK   81  A    between atoms: _215  and  _217
REMARK   82  A    between atoms: _217  and  _218
REMARK   83  A    between atoms: _217  and  _220
REMARK   84  A    between atoms: _220  and  _221
REMARK   85  A    between atoms: _224  and  _226
REMARK   86  A    between atoms: _226  and  _227
REMARK   87  A    between atoms: _226  and  _229
REMARK   88  A    between atoms: _229  and  _230
REMARK   89  A    between atoms: _235  and  _237
REMARK   90  A    between atoms: _237  and  _238
REMARK   91  A    between atoms: _237  and  _240
REMARK   92  A    between atoms: _240  and  _241
REMARK   93  A    between atoms: _244  and  _246
REMARK   94  A    between atoms: _246  and  _247
REMARK   95  A    between atoms: _246  and  _249
REMARK   96  A    between atoms: _249  and  _250
REMARK   97  A    between atoms: _255  and  _257
REMARK   98  A    between atoms: _257  and  _258
REMARK   99  A    between atoms: _257  and  _260
REMARK  100  A    between atoms: _260  and  _261
REMARK  101  A    between atoms: _266  and  _268
REMARK  102  A    between atoms: _268  and  _269
REMARK  103  A    between atoms: _268  and  _271
REMARK  104  A    between atoms: _271  and  _272
REMARK  105  A    between atoms: _275  and  _277
REMARK  106  A    between atoms: _277  and  _278
REMARK  107  A    between atoms: _277  and  _280
REMARK  108  A    between atoms: _283  and  _285
REMARK  109  A    between atoms: _285  and  _286
REMARK  110  A    between atoms: _285  and  _288
REMARK  111  A    between atoms: _288  and  _289
REMARK  112  A    between atoms: _292  and  _294
REMARK  113  A    between atoms: _294  and  _295
REMARK  114  A    between atoms: _298  and  _300
REMARK  115  A    between atoms: _300  and  _301
REMARK  116  A    between atoms: _300  and  _303
REMARK  117  A    between atoms: _303  and  _304
REMARK  118  A    between atoms: _307  and  _309
REMARK  119  A    between atoms: _309  and  _310
REMARK  120  A    between atoms: _309  and  _312
REMARK  121  A    between atoms: _312  and  _313
REMARK  122  A    between atoms: _318  and  _320
REMARK  123  A    between atoms: _320  and  _321
REMARK  124  A    between atoms: _323  and  _325
REMARK  125  A    between atoms: _325  and  _326
REMARK  126  A    between atoms: _325  and  _328
REMARK  127  A    between atoms: _331  and  _333
REMARK  128  A    between atoms: _333  and  _334
REMARK  129  A    between atoms: _337  and  _339
REMARK  130  A    between atoms: _339  and  _340
REMARK  131  A    between atoms: _339  and  _342
REMARK  132  A    between atoms: _342  and  _343
REMARK  133  A    between atoms: _348  and  _350
REMARK  134  A    between atoms: _350  and  _351
REMARK  135  A    between atoms: _350  and  _353
REMARK  136  A    between atoms: _353  and  _354
REMARK  137  A    between atoms: _354  and  _355
REMARK  138  A    between atoms: _355  and  _356
REMARK  139  A    between atoms: _356  and  _357
REMARK  140  A    between atoms: _361  and  _363
REMARK  141  A    between atoms: _363  and  _364
REMARK  142  A    between atoms: _363  and  _366
REMARK  143  A    between atoms: _366  and  _367
REMARK  144  A    between atoms: _370  and  _372
REMARK  145  A    between atoms: _372  and  _373
REMARK  146  A    between atoms: _372  and  _375
REMARK  147  A    between atoms: _375  and  _376
REMARK  148  A    between atoms: _381  and  _383
REMARK  149  A    between atoms: _383  and  _384
REMARK  150  A    between atoms: _386  and  _388
REMARK  151  A    between atoms: _388  and  _389
REMARK  152  A    between atoms: _388  and  _391
REMARK  153  A    between atoms: _391  and  _392
REMARK  154  A    between atoms: _392  and  _393
REMARK  155  A    between atoms: _393  and  _394
REMARK  156  A    between atoms: _394  and  _395
REMARK  157  A    between atoms: _399  and  _401
REMARK  158  A    between atoms: _401  and  _402
REMARK  159  A    between atoms: _401  and  _404
REMARK  160  A    between atoms: _404  and  _405
REMARK  161  A    between atoms: _405  and  _406
REMARK  162  A    between atoms: _406  and  _407
REMARK  163  A    between atoms: _416  and  _418
REMARK  164  A    between atoms: _418  and  _419
REMARK  165  A    between atoms: _418  and  _421
REMARK  166  A    between atoms: _421  and  _422
REMARK  167  A    between atoms: _427  and  _428
REMARK  168  A    between atoms: _430  and  _432
REMARK  169  A    between atoms: _432  and  _433
REMARK  170  A    between atoms: _432  and  _435
REMARK  171  A    between atoms: _435  and  _436
REMARK  172  A    between atoms: _436  and  _437
REMARK  173  A    between atoms: _437  and  _438
REMARK  174  A    between atoms: _438  and  _439
REMARK  175  A    between atoms: _443  and  _445
REMARK  176  A    between atoms: _445  and  _446
REMARK  177  A    between atoms: _445  and  _448
REMARK  178  A    between atoms: _448  and  _449
REMARK  179  A    between atoms: _449  and  _450
REMARK  180  A    between atoms: _455  and  _457
REMARK  181  A    between atoms: _457  and  _458
REMARK  182  A    between atoms: _457  and  _460
REMARK  183  A    between atoms: _460  and  _461
REMARK  184  A    between atoms: _463  and  _465
REMARK  185  A    between atoms: _465  and  _466
REMARK  186  A    between atoms: _465  and  _468
REMARK  187  A    between atoms: _468  and  _469
REMARK  188  A    between atoms: _472  and  _474
REMARK  189  A    between atoms: _474  and  _475
REMARK  190  A    between atoms: _474  and  _477
REMARK  191  A    between atoms: _477  and  _478
REMARK  192  A    between atoms: _478  and  _479
REMARK  193  A    between atoms: _482  and  _484
REMARK  194  A    between atoms: _484  and  _485
REMARK  195  A    between atoms: _488  and  _490
REMARK  196  A    between atoms: _490  and  _491
REMARK  197  A    between atoms: _490  and  _493
REMARK  198  A    between atoms: _493  and  _494
REMARK  199  A    between atoms: _496  and  _498
REMARK  200  A    between atoms: _498  and  _499
REMARK  201  A    between atoms: _501  and  _503
REMARK  202  A    between atoms: _503  and  _504
REMARK  203  A    between atoms: _503  and  _506
REMARK  204  A    between atoms: _506  and  _507
REMARK  205  A    between atoms: _510  and  _512
REMARK  206  A    between atoms: _512  and  _513
REMARK  207  A    between atoms: _515  and  _517
REMARK  208  A    between atoms: _517  and  _518
REMARK  209  A    between atoms: _517  and  _520
REMARK  210  A    between atoms: _520  and  _521
REMARK  211  A    between atoms: _526  and  _528
REMARK  212  A    between atoms: _528  and  _529
REMARK  213  A    between atoms: _528  and  _531
REMARK  214  A    between atoms: _531  and  _532
REMARK  215  A    between atoms: _532  and  _533
REMARK  216  A    between atoms: _540  and  _541
REMARK  217  A    between atoms: _541  and  _557
REMARK  218  A    between atoms: _542  and  _544
REMARK  219  A    between atoms: _544  and  _545
REMARK  220  A    between atoms: _545  and  _546
REMARK  221  A    between atoms: _550  and  _552
REMARK  222  A    between atoms: _552  and  _553
REMARK  223  A    between atoms: _552  and  _560
REMARK  224  A    between atoms: _553  and  _554
REMARK  225  A    between atoms: _554  and  _555
REMARK  226  A    between atoms: _555  and  _556
REMARK  227  A    between atoms: _556  and  _557
REMARK  228  A    between atoms: _562  and  _564
REMARK  229  A    between atoms: _564  and  _565
REMARK  230  A    between atoms: _564  and  _567
REMARK  231  A    between atoms: _567  and  _568
REMARK  232  A    between atoms: _571  and  _573
REMARK  233  A    between atoms: _573  and  _574
REMARK  234  A    between atoms: _576  and  _578
REMARK  235  A    between atoms: _578  and  _579
REMARK  236  A    between atoms: _582  and  _584
REMARK  237  A    between atoms: _584  and  _585
REMARK  238  A    between atoms: _584  and  _587
REMARK  239  A    between atoms: _587  and  _588
REMARK  240  A    between atoms: _593  and  _594
REMARK                            x       y       z     vdW  Elec       q    Type
REMARK                         _______ _______ _______ _____ _____    ______ ____
ROOT
ATOM      1  C   GLY A   2      37.768  14.560  23.581  0.00  0.00    +0.243 C 
ATOM      2  O   GLY A   2      37.403  13.389  23.767  0.00  0.00    -0.273 OA
ATOM      3  N   VAL A   3      36.918  15.543  23.341  0.00  0.00    -0.297 N 
ATOM      4  H   VAL A   3      37.270  16.449  22.970  0.00  0.00    +0.150 HD
ENDROOT
BRANCH   1   5
ATOM      5  CA  GLY A   2      39.238  14.952  23.593  0.00  0.00    +0.176 C 
BRANCH   5   8
ATOM      6  C   ASN A   1      40.319  13.456  25.190  0.00  0.00    +0.239 C 
ATOM      7  O   ASN A   1      40.246  14.243  26.129  0.00  0.00    -0.274 OA
ATOM      8  N   GLY A   2      40.031  13.782  23.936  0.00  0.00    -0.296 N 
ATOM      9  H   GLY A   2      40.386  13.177  23.168  0.00  0.00    +0.150 HD
BRANCH   6  10
ATOM     10  CA  ASN A   1      40.807  12.033  25.389  0.00  0.00    +0.154 C 
BRANCH  10  11
ATOM     11  N   ASN A   1      41.814  11.906  26.431  0.00  0.00    -0.238 NA
ATOM     12  H   ASN A   1      41.649  12.318  27.372  0.00  0.00    +0.142 HD
ENDBRANCH  10  11
BRANCH  10  13
ATOM     13  CB  ASN A   1      39.636  11.058  25.605  0.00  0.00    +0.111 C 
BRANCH  13  14
ATOM     14  CG  ASN A   1      38.680  11.515  26.697  0.00  0.00    +0.221 C 
ATOM     15  OD1 ASN A   1      38.945  11.326  27.881  0.00  0.00    -0.275 OA
ATOM     16  ND2 ASN A   1      37.556  12.118  26.296  0.00  0.00    -0.329 N 
ATOM     17 HD21 ASN A   1      36.864  12.448  26.999  0.00  0.00    +0.145 HD
ATOM     18 HD22 ASN A   1      37.374  12.257  25.282  0.00  0.00    +0.145 HD
ENDBRANCH  13  14
ENDBRANCH  10  13
ENDBRANCH   6  10
ENDBRANCH   5   8
ENDBRANCH   1   5
BRANCH   3  19
ATOM     19  CA  VAL A   3      35.496  15.371  23.590  0.00  0.00    +0.149 C 
BRANCH  19  20
ATOM     20  C   VAL A   3      34.650  15.461  22.313  0.00  0.00    +0.241 C 
ATOM     21  O   VAL A   3      33.417  15.460  22.371  0.00  0.00    -0.273 OA
ATOM     22  N   ALA A   4      35.335  15.532  21.171  0.00  0.00    -0.298 N 
ATOM     23  H   ALA A   4      36.360  15.703  21.219  0.00  0.00    +0.150 HD
BRANCH  22  24
ATOM     24  CA  ALA A   4      34.712  15.380  19.844  0.00  0.00    +0.137 C 
ATOM     25  CB  ALA A   4      33.963  16.640  19.414  0.00  0.00    +0.030 C 
BRANCH  24  26
ATOM     26  C   ALA A   4      35.834  15.053  18.870  0.00  0.00    +0.227 C 
ATOM     27  O   ALA A   4      37.011  15.330  19.145  0.00  0.00    -0.286 OA
ENDBRANCH  24  26
ENDBRANCH  22  24
ENDBRANCH  19  20
BRANCH  19  28
ATOM     28  CB  VAL A   3      34.999  16.340  24.698  0.00  0.00    +0.027 C 
ATOM     29  CG2 VAL A   3      35.486  15.874  26.066  0.00  0.00    +0.002 C 
ATOM     30  CG1 VAL A   3      35.408  17.784  24.404  0.00  0.00    +0.002 C 
ENDBRANCH  19  28
ENDBRANCH   3  19
TORSDOF 11
REMARK  Name = ../refined-set-2016/3sym/3sym_pocket.pdb
REMARK  240 active torsions:
REMARK  status: ('A' for Active; 'I' for Inactive)
REMARK    1  A    between atoms: _1  and  _3
REMARK    2  A    between atoms: _3  and  _4
REMARK    3  A    between atoms: _3  and  _6
REMARK    4  A    between atoms: _6  and  _7
REMARK    5  A    between atoms: _12  and  _13
REMARK    6  A    between atoms: _15  and  _17
REMARK    7  A    between atoms: _17  and  _18
REMARK    8  A    between atoms: _17  and  _20
REMARK    9  A    between atoms: _20  and  _21
REMARK   10  A    between atoms: _21  and  _22
REMARK   11  A    between atoms: _25  and  _27
REMARK   12  A    between atoms: _27  and  _28
REMARK   13  A    between atoms: _27  and  _30
REMARK   14  A    between atoms: _30  and  _31
REMARK   15  A    between atoms: _36  and  _37
REMARK   16  A    between atoms: _39  and  _41
REMARK   17  A    between atoms: _41  and  _42
REMARK   18  A    between atoms: _44  and  _46
REMARK   19  A    between atoms: _46  and  _47
REMARK   20  A    between atoms: _46  and  _49
REMARK   21  A    between atoms: _49  and  _50
REMARK   22  A    between atoms: _55  and  _57
REMARK   23  A    between atoms: _57  and  _58
REMARK   24  A    between atoms: _60  and  _62
REMARK   25  A    between atoms: _62  and  _63
REMARK   26  A    between atoms: _65  and  _67
REMARK   27  A    between atoms: _67  and  _68
REMARK   28  A    between atoms: _67  and  _70
REMARK   29  A    between atoms: _70  and  _71
REMARK   30  A    between atoms: _74  and  _76
REMARK   31  A    between atoms: _76  and  _77
REMARK   32  A    between atoms: _79  and  _81
REMARK   33  A    between atoms: _81  and  _82
REMARK   34  A    between atoms: _81  and  _84
REMARK   35  A    between atoms: _85  and  _86
REMARK   36  A    between atoms: _86  and  _87
REMARK   37  A    between atoms: _96  and  _98
REMARK   38  A    between atoms: _98  and  _99
REMARK   39  A    between atoms: _98  and  _101
REMARK   40  A    between atoms: _101  and  _102
REMARK   41  A    between atoms: _105  and  _107
REMARK   42  A    between atoms: _107  and  _108
REMARK   43  A    between atoms: _111  and  _113
REMARK   44  A    between atoms: _113  and  _114
REMARK   45  A    between atoms: _113  and  _116
REMARK   46  A    between atoms: _116  and  _117
REMARK   47  A    between atoms: _123  and  _125
REMARK   48  A    between atoms: _125  and  _126
REMARK   49  A    between atoms: _125  and  _128
REMARK   50  A    between atoms: _128  and  _129
REMARK   51  A    between atoms: _134  and  _136
REMARK   52  A    between atoms: _136  and  _137
REMARK   53  A    between atoms: _136  and  _139
REMARK   54  A    between atoms: _139  and  _140
REMARK   55  A    between atoms: _143  and  _145
REMARK   56  A    between atoms: _145  and  _146
REMARK   57  A    between atoms: _145  and  _148
REMARK   58  A    between atoms: _148  and  _149
REMARK   59  A    between atoms: _154  and  _156
REMARK   60  A    between atoms: _156  and  _157
REMARK   61  A    between atoms: _156  and  _159
REMARK   62  A    between atoms: _159  and  _160
REMARK   63  A    between atoms: _166  and  _168
REMARK   64  A    between atoms: _168  and  _169
REMARK   65  A    between atoms: _168  and  _171
REMARK   66  A    between atoms: _171  and  _172
REMARK   67  A    between atoms: _178  and  _180
REMARK   68  A    between atoms: _180  and  _181
REMARK   69  A    between atoms: _180  and  _183
REMARK   70  A    between atoms: _183  and  _184
REMARK   71  A    between atoms: _184  and  _185
REMARK   72  A    between atoms: _185  and  _186
REMARK   73  A    between atoms: _195  and  _197
REMARK   74  A    between atoms: _197  and  _198
REMARK   75  A    between atoms: _197  and  _200
REMARK   76  A    between atoms: _200  and  _201
REMARK   77  A    between atoms: _206  and  _208
REMARK   78  A    between atoms: _208  and  _209
REMARK   79  A    between atoms: _208  and  _211
REMARK   80  A    between atoms: _211  and  _212
REMARK   81  A    between atoms: _215  and  _217
REMARK   82  A    between atoms: _217  and  _218
REMARK   83  A    between atoms: _217  and  _220
REMARK   84  A    between atoms: _220  and  _221
REMARK   85  A    between atoms: _224  and  _226
REMARK   86  A    between atoms: _226  and  _227
REMARK   87  A    between atoms: _226  and  _229
REMARK   88  A    between atoms: _229  and  _230
REMARK   89  A    between atoms: _235  and  _237
REMARK   90  A    between atoms: _237  and  _238
REMARK   91  A    between atoms: _237  and  _240
REMARK   92  A    between atoms: _240  and  _241
REMARK   93  A    between atoms: _244  and  _246
REMARK   94  A    between atoms: _246  and  _247
REMARK   95  A    between atoms: _246  and  _249
REMARK   96  A    between atoms: _249  and  _250
REMARK   97  A    between atoms: _255  and  _257
REMARK   98  A    between atoms: _257  and  _258
REMARK   99  A    between atoms: _257  and  _260
REMARK  100  A    between atoms: _260  and  _261
REMARK  101  A    between atoms: _266  and  _268
REMARK  102  A    between atoms: _268  and  _269
REMARK  103  A    between atoms: _268  and  _271
REMARK  104  A    between atoms: _271  and  _272
REMARK  105  A    between atoms: _275  and  _277
REMARK  106  A    between atoms: _277  and  _278
REMARK  107  A    between atoms: _277  and  _280
REMARK  108  A    between atoms: _283  and  _285
REMARK  109  A    between atoms: _285  and  _286
REMARK  110  A    between atoms: _285  and  _288
REMARK  111  A    between atoms: _288  and  _289
REMARK  112  A    between atoms: _292  and  _294
REMARK  113  A    between atoms: _294  and  _295
REMARK  114  A    between atoms: _298  and  _300
REMARK  115  A    between atoms: _300  and  _301
REMARK  116  A    between atoms: _300  and  _303
REMARK  117  A    between atoms: _303  and  _304
REMARK  118  A    between atoms: _307  and  _309
REMARK  119  A    between atoms: _309  and  _310
REMARK  120  A    between atoms: _309  and  _312
REMARK  121  A    between atoms: _312  and  _313
REMARK  122  A    between atoms: _318  and  _320
REMARK  123  A    between atoms: _320  and  _321
REMARK  124  A    between atoms: _323  and  _325
REMARK  125  A    between atoms: _325  and  _326
REMARK  126  A    between atoms: _325  and  _328
REMARK  127  A    between atoms: _331  and  _333
REMARK  128  A    between atoms: _333  and  _334
REMARK  129  A    between atoms: _337  and  _339
REMARK  130  A    between atoms: _339  and  _340
REMARK  131  A    between atoms: _339  and  _342
REMARK  132  A    between atoms: _342  and  _343
REMARK  133  A    between atoms: _348  and  _350
REMARK  134  A    between atoms: _350  and  _351
REMARK  135  A    between atoms: _350  and  _353
REMARK  136  A    between atoms: _353  and  _354
REMARK  137  A    between atoms: _354  and  _355
REMARK  138  A    between atoms: _355  and  _356
REMARK  139  A    between atoms: _356  and  _357
REMARK  140  A    between atoms: _361  and  _363
REMARK  141  A    between atoms: _363  and  _364
REMARK  142  A    between atoms: _363  and  _366
REMARK  143  A    between atoms: _366  and  _367
REMARK  144  A    between atoms: _370  and  _372
REMARK  145  A    between atoms: _372  and  _373
REMARK  146  A    between atoms: _372  and  _375
REMARK  147  A    between atoms: _375  and  _376
REMARK  148  A    between atoms: _381  and  _383
REMARK  149  A    between atoms: _383  and  _384
REMARK  150  A    between atoms: _386  and  _388
REMARK  151  A    between atoms: _388  and  _389
REMARK  152  A    between atoms: _388  and  _391
REMARK  153  A    between atoms: _391  and  _392
REMARK  154  A    between atoms: _392  and  _393
REMARK  155  A    between atoms: _393  and  _394
REMARK  156  A    between atoms: _394  and  _395
REMARK  157  A    between atoms: _399  and  _401
REMARK  158  A    between atoms: _401  and  _402
REMARK  159  A    between atoms: _401  and  _404
REMARK  160  A    between atoms: _404  and  _405
REMARK  161  A    between atoms: _405  and  _406
REMARK  162  A    between atoms: _406  and  _407
REMARK  163  A    between atoms: _416  and  _418
REMARK  164  A    between atoms: _418  and  _419
REMARK  165  A    between atoms: _418  and  _421
REMARK  166  A    between atoms: _421  and  _422
REMARK  167  A    between atoms: _427  and  _428
REMARK  168  A    between atoms: _430  and  _432
REMARK  169  A    between atoms: _432  and  _433
REMARK  170  A    between atoms: _432  and  _435
REMARK  171  A    between atoms: _435  and  _436
REMARK  172  A    between atoms: _436  and  _437
REMARK  173  A    between atoms: _437  and  _438
REMARK  174  A    between atoms: _438  and  _439
REMARK  175  A    between atoms: _443  and  _445
REMARK  176  A    between atoms: _445  and  _446
REMARK  177  A    between atoms: _445  and  _448
REMARK  178  A    between atoms: _448  and  _449
REMARK  179  A    between atoms: _449  and  _450
REMARK  180  A    between atoms: _455  and  _457
REMARK  181  A    between atoms: _457  and  _458
REMARK  182  A    between atoms: _457  and  _460
REMARK  183  A    between atoms: _460  and  _461
REMARK  184  A    between atoms: _463  and  _465
REMARK  185  A    between atoms: _465  and  _466
REMARK  186  A    between atoms: _465  and  _468
REMARK  187  A    between atoms: _468  and  _469
REMARK  188  A    between atoms: _472  and  _474
REMARK  189  A    between atoms: _474  and  _475
REMARK  190  A    between atoms: _474  and  _477
REMARK  191  A    between atoms: _477  and  _478
REMARK  192  A    between atoms: _478  and  _479
REMARK  193  A    between atoms: _482  and  _484
REMARK  194  A    between atoms: _484  and  _485
REMARK  195  A    between atoms: _488  and  _490
REMARK  196  A    between atoms: _490  and  _491
REMARK  197  A    between atoms: _490  and  _493
REMARK  198  A    between atoms: _493  and  _494
REMARK  199  A    between atoms: _496  and  _498
REMARK  200  A    between atoms: _498  and  _499
REMARK  201  A    between atoms: _501  and  _503
REMARK  202  A    between atoms: _503  and  _504
REMARK  203  A    between atoms: _503  and  _506
REMARK  204  A    between atoms: _506  and  _507
REMARK  205  A    between atoms: _510  and  _512
REMARK  206  A    between atoms: _512  and  _513
REMARK  207  A    between atoms: _515  and  _517
REMARK  208  A    between atoms: _517  and  _518
REMARK  209  A    between atoms: _517  and  _520
REMARK  210  A    between atoms: _520  and  _521
REMARK  211  A    between atoms: _526  and  _528
REMARK  212  A    between atoms: _528  and  _529
REMARK  213  A    between atoms: _528  and  _531
REMARK  214  A    between atoms: _531  and  _532
REMARK  215  A    between atoms: _532  and  _533
REMARK  216  A    between atoms: _540  and  _541
REMARK  217  A    between atoms: _541  and  _557
REMARK  218  A    between atoms: _542  and  _544
REMARK  219  A    between atoms: _544  and  _545
REMARK  220  A    between atoms: _545  and  _546
REMARK  221  A    between atoms: _550  and  _552
REMARK  222  A    between atoms: _552  and  _553
REMARK  223  A    between atoms: _552  and  _560
REMARK  224  A    between atoms: _553  and  _554
REMARK  225  A    between atoms: _554  and  _555
REMARK  226  A    between atoms: _555  and  _556
REMARK  227  A    between atoms: _556  and  _557
REMARK  228  A    between atoms: _562  and  _564
REMARK  229  A    between atoms: _564  and  _565
REMARK  230  A    between atoms: _564  and  _567
REMARK  231  A    between atoms: _567  and  _568
REMARK  232  A    between atoms: _571  and  _573
REMARK  233  A    between atoms: _573  and  _574
REMARK  234  A    between atoms: _576  and  _578
REMARK  235  A    between atoms: _578  and  _579
REMARK  236  A    between atoms: _582  and  _584
REMARK  237  A    between atoms: _584  and  _585
REMARK  238  A    between atoms: _584  and  _587
REMARK  239  A    between atoms: _587  and  _588
REMARK  240  A    between atoms: _593  and  _594
REMARK                            x       y       z     vdW  Elec       q    Type
REMARK                         _______ _______ _______ _____ _____    ______ ____
ROOT
ATOM      1  CB  HIS A   1      37.959  18.519  20.081  0.00  0.00    +0.072 C 
ENDROOT
BRANCH   1   2
ATOM      2  CG  HIS A   1      38.615  18.706  21.426  0.00  0.00    +0.082 A 
ATOM      3  CD2 HIS A   1      38.570  17.934  22.579  0.00  0.00    +0.115 A 
ATOM      4  NE2 HIS A   1      39.335  18.567  23.515  0.00  0.00    -0.221 NA
ATOM      5  CE1 HIS A   1      39.847  19.677  22.978  0.00  0.00    +0.199 A 
ATOM      6  ND1 HIS A   1      39.412  19.759  21.705  0.00  0.00    -0.227 NA
ENDBRANCH   1   2
BRANCH   1   7
ATOM      7  CA  HIS A   1      38.941  18.335  18.922  0.00  0.00    +0.139 C 
BRANCH   7   8
ATOM      8  N   HIS A   1      38.213  17.854  17.762  0.00  0.00    -0.239 NA
ATOM      9  H   HIS A   1      37.236  17.524  17.899  0.00  0.00    +0.142 HD
ENDBRANCH   7   8
BRANCH   7  10
ATOM     10  C   HIS A   1      40.059  17.377  19.274  0.00  0.00    +0.224 C 
ATOM     11  O   HIS A   1      41.210  17.793  19.485  0.00  0.00    -0.287 OA
ENDBRANCH   7  10
ENDBRANCH   1   7
TORSDOF 4
REMARK  Name = ../refined-set-2016/3sym/3sym_pocket.pdb
REMARK  240 active torsions:
REMARK  status: ('A' for Active; 'I' for Inactive)
REMARK    1  A    between atoms: _1  and  _3
REMARK    2  A    between atoms: _3  and  _4
REMARK    3  A    between atoms: _3  and  _6
REMARK    4  A    between atoms: _6  and  _7
REMARK    5  A    between atoms: _12  and  _13
REMARK    6  A    between atoms: _15  and  _17
REMARK    7  A    between atoms: _17  and  _18
REMARK    8  A    between atoms: _17  and  _20
REMARK    9  A    between atoms: _20  and  _21
REMARK   10  A    between atoms: _21  and  _22
REMARK   11  A    between atoms: _25  and  _27
REMARK   12  A    between atoms: _27  and  _28
REMARK   13  A    between atoms: _27  and  _30
REMARK   14  A    between atoms: _30  and  _31
REMARK   15  A    between atoms: _36  and  _37
REMARK   16  A    between atoms: _39  and  _41
REMARK   17  A    between atoms: _41  and  _42
REMARK   18  A    between atoms: _44  and  _46
REMARK   19  A    between atoms: _46  and  _47
REMARK   20  A    between atoms: _46  and  _49
REMARK   21  A    between atoms: _49  and  _50
REMARK   22  A    between atoms: _55  and  _57
REMARK   23  A    between atoms: _57  and  _58
REMARK   24  A    between atoms: _60  and  _62
REMARK   25  A    between atoms: _62  and  _63
REMARK   26  A    between atoms: _65  and  _67
REMARK   27  A    between atoms: _67  and  _68
REMARK   28  A    between atoms: _67  and  _70
REMARK   29  A    between atoms: _70  and  _71
REMARK   30  A    between atoms: _74  and  _76
REMARK   31  A    between atoms: _76  and  _77
REMARK   32  A    between atoms: _79  and  _81
REMARK   33  A    between atoms: _81  and  _82
REMARK   34  A    between atoms: _81  and  _84
REMARK   35  A    between atoms: _85  and  _86
REMARK   36  A    between atoms: _86  and  _87
REMARK   37  A    between atoms: _96  and  _98
REMARK   38  A    between atoms: _98  and  _99
REMARK   39  A    between atoms: _98  and  _101
REMARK   40  A    between atoms: _101  and  _102
REMARK   41  A    between atoms: _105  and  _107
REMARK   42  A    between atoms: _107  and  _108
REMARK   43  A    between atoms: _111  and  _113
REMARK   44  A    between atoms: _113  and  _114
REMARK   45  A    between atoms: _113  and  _116
REMARK   46  A    between atoms: _116  and  _117
REMARK   47  A    between atoms: _123  and  _125
REMARK   48  A    between atoms: _125  and  _126
REMARK   49  A    between atoms: _125  and  _128
REMARK   50  A    between atoms: _128  and  _129
REMARK   51  A    between atoms: _134  and  _136
REMARK   52  A    between atoms: _136  and  _137
REMARK   53  A    between atoms: _136  and  _139
REMARK   54  A    between atoms: _139  and  _140
REMARK   55  A    between atoms: _143  and  _145
REMARK   56  A    between atoms: _145  and  _146
REMARK   57  A    between atoms: _145  and  _148
REMARK   58  A    between atoms: _148  and  _149
REMARK   59  A    between atoms: _154  and  _156
REMARK   60  A    between atoms: _156  and  _157
REMARK   61  A    between atoms: _156  and  _159
REMARK   62  A    between atoms: _159  and  _160
REMARK   63  A    between atoms: _166  and  _168
REMARK   64  A    between atoms: _168  and  _169
REMARK   65  A    between atoms: _168  and  _171
REMARK   66  A    between atoms: _171  and  _172
REMARK   67  A    between atoms: _178  and  _180
REMARK   68  A    between atoms: _180  and  _181
REMARK   69  A    between atoms: _180  and  _183
REMARK   70  A    between atoms: _183  and  _184
REMARK   71  A    between atoms: _184  and  _185
REMARK   72  A    between atoms: _185  and  _186
REMARK   73  A    between atoms: _195  and  _197
REMARK   74  A    between atoms: _197  and  _198
REMARK   75  A    between atoms: _197  and  _200
REMARK   76  A    between atoms: _200  and  _201
REMARK   77  A    between atoms: _206  and  _208
REMARK   78  A    between atoms: _208  and  _209
REMARK   79  A    between atoms: _208  and  _211
REMARK   80  A    between atoms: _211  and  _212
REMARK   81  A    between atoms: _215  and  _217
REMARK   82  A    between atoms: _217  and  _218
REMARK   83  A    between atoms: _217  and  _220
REMARK   84  A    between atoms: _220  and  _221
REMARK   85  A    between atoms: _224  and  _226
REMARK   86  A    between atoms: _226  and  _227
REMARK   87  A    between atoms: _226  and  _229
REMARK   88  A    between atoms: _229  and  _230
REMARK   89  A    between atoms: _235  and  _237
REMARK   90  A    between atoms: _237  and  _238
REMARK   91  A    between atoms: _237  and  _240
REMARK   92  A    between atoms: _240  and  _241
REMARK   93  A    between atoms: _244  and  _246
REMARK   94  A    between atoms: _246  and  _247
REMARK   95  A    between atoms: _246  and  _249
REMARK   96  A    between atoms: _249  and  _250
REMARK   97  A    between atoms: _255  and  _257
REMARK   98  A    between atoms: _257  and  _258
REMARK   99  A    between atoms: _257  and  _260
REMARK  100  A    between atoms: _260  and  _261
REMARK  101  A    between atoms: _266  and  _268
REMARK  102  A    between atoms: _268  and  _269
REMARK  103  A    between atoms: _268  and  _271
REMARK  104  A    between atoms: _271  and  _272
REMARK  105  A    between atoms: _275  and  _277
REMARK  106  A    between atoms: _277  and  _278
REMARK  107  A    between atoms: _277  and  _280
REMARK  108  A    between atoms: _283  and  _285
REMARK  109  A    between atoms: _285  and  _286
REMARK  110  A    between atoms: _285  and  _288
REMARK  111  A    between atoms: _288  and  _289
REMARK  112  A    between atoms: _292  and  _294
REMARK  113  A    between atoms: _294  and  _295
REMARK  114  A    between atoms: _298  and  _300
REMARK  115  A    between atoms: _300  and  _301
REMARK  116  A    between atoms: _300  and  _303
REMARK  117  A    between atoms: _303  and  _304
REMARK  118  A    between atoms: _307  and  _309
REMARK  119  A    between atoms: _309  and  _310
REMARK  120  A    between atoms: _309  and  _312
REMARK  121  A    between atoms: _312  and  _313
REMARK  122  A    between atoms: _318  and  _320
REMARK  123  A    between atoms: _320  and  _321
REMARK  124  A    between atoms: _323  and  _325
REMARK  125  A    between atoms: _325  and  _326
REMARK  126  A    between atoms: _325  and  _328
REMARK  127  A    between atoms: _331  and  _333
REMARK  128  A    between atoms: _333  and  _334
REMARK  129  A    between atoms: _337  and  _339
REMARK  130  A    between atoms: _339  and  _340
REMARK  131  A    between atoms: _339  and  _342
REMARK  132  A    between atoms: _342  and  _343
REMARK  133  A    between atoms: _348  and  _350
REMARK  134  A    between atoms: _350  and  _351
REMARK  135  A    between atoms: _350  and  _353
REMARK  136  A    between atoms: _353  and  _354
REMARK  137  A    between atoms: _354  and  _355
REMARK  138  A    between atoms: _355  and  _356
REMARK  139  A    between atoms: _356  and  _357
REMARK  140  A    between atoms: _361  and  _363
REMARK  141  A    between atoms: _363  and  _364
REMARK  142  A    between atoms: _363  and  _366
REMARK  143  A    between atoms: _366  and  _367
REMARK  144  A    between atoms: _370  and  _372
REMARK  145  A    between atoms: _372  and  _373
REMARK  146  A    between atoms: _372  and  _375
REMARK  147  A    between atoms: _375  and  _376
REMARK  148  A    between atoms: _381  and  _383
REMARK  149  A    between atoms: _383  and  _384
REMARK  150  A    between atoms: _386  and  _388
REMARK  151  A    between atoms: _388  and  _389
REMARK  152  A    between atoms: _388  and  _391
REMARK  153  A    between atoms: _391  and  _392
REMARK  154  A    between atoms: _392  and  _393
REMARK  155  A    between atoms: _393  and  _394
REMARK  156  A    between atoms: _394  and  _395
REMARK  157  A    between atoms: _399  and  _401
REMARK  158  A    between atoms: _401  and  _402
REMARK  159  A    between atoms: _401  and  _404
REMARK  160  A    between atoms: _404  and  _405
REMARK  161  A    between atoms: _405  and  _406
REMARK  162  A    between atoms: _406  and  _407
REMARK  163  A    between atoms: _416  and  _418
REMARK  164  A    between atoms: _418  and  _419
REMARK  165  A    between atoms: _418  and  _421
REMARK  166  A    between atoms: _421  and  _422
REMARK  167  A    between atoms: _427  and  _428
REMARK  168  A    between atoms: _430  and  _432
REMARK  169  A    between atoms: _432  and  _433
REMARK  170  A    between atoms: _432  and  _435
REMARK  171  A    between atoms: _435  and  _436
REMARK  172  A    between atoms: _436  and  _437
REMARK  173  A    between atoms: _437  and  _438
REMARK  174  A    between atoms: _438  and  _439
REMARK  175  A    between atoms: _443  and  _445
REMARK  176  A    between atoms: _445  and  _446
REMARK  177  A    between atoms: _445  and  _448
REMARK  178  A    between atoms: _448  and  _449
REMARK  179  A    between atoms: _449  and  _450
REMARK  180  A    between atoms: _455  and  _457
REMARK  181  A    between atoms: _457  and  _458
REMARK  182  A    between atoms: _457  and  _460
REMARK  183  A    between atoms: _460  and  _461
REMARK  184  A    between atoms: _463  and  _465
REMARK  185  A    between atoms: _465  and  _466
REMARK  186  A    between atoms: _465  and  _468
REMARK  187  A    between atoms: _468  and  _469
REMARK  188  A    between atoms: _472  and  _474
REMARK  189  A    between atoms: _474  and  _475
REMARK  190  A    between atoms: _474  and  _477
REMARK  191  A    between atoms: _477  and  _478
REMARK  192  A    between atoms: _478  and  _479
REMARK  193  A    between atoms: _482  and  _484
REMARK  194  A    between atoms: _484  and  _485
REMARK  195  A    between atoms: _488  and  _490
REMARK  196  A    between atoms: _490  and  _491
REMARK  197  A    between atoms: _490  and  _493
REMARK  198  A    between atoms: _493  and  _494
REMARK  199  A    between atoms: _496  and  _498
REMARK  200  A    between atoms: _498  and  _499
REMARK  201  A    between atoms: _501  and  _503
REMARK  202  A    between atoms: _503  and  _504
REMARK  203  A    between atoms: _503  and  _506
REMARK  204  A    between atoms: _506  and  _507
REMARK  205  A    between atoms: _510  and  _512
REMARK  206  A    between atoms: _512  and  _513
REMARK  207  A    between atoms: _515  and  _517
REMARK  208  A    between atoms: _517  and  _518
REMARK  209  A    between atoms: _517  and  _520
REMARK  210  A    between atoms: _520  and  _521
REMARK  211  A    between atoms: _526  and  _528
REMARK  212  A    between atoms: _528  and  _529
REMARK  213  A    between atoms: _528  and  _531
REMARK  214  A    between atoms: _531  and  _532
REMARK  215  A    between atoms: _532  and  _533
REMARK  216  A    between atoms: _540  and  _541
REMARK  217  A    between atoms: _541  and  _557
REMARK  218  A    between atoms: _542  and  _544
REMARK  219  A    between atoms: _544  and  _545
REMARK  220  A    between atoms: _545  and  _546
REMARK  221  A    between atoms: _550  and  _552
REMARK  222  A    between atoms: _552  and  _553
REMARK  223  A    between atoms: _552  and  _560
REMARK  224  A    between atoms: _553  and  _554
REMARK  225  A    between atoms: _554  and  _555
REMARK  226  A    between atoms: _555  and  _556
REMARK  227  A    between atoms: _556  and  _557
REMARK  228  A    between atoms: _562  and  _564
REMARK  229  A    between atoms: _564  and  _565
REMARK  230  A    between atoms: _564  and  _567
REMARK  231  A    between atoms: _567  and  _568
REMARK  232  A    between atoms: _571  and  _573
REMARK  233  A    between atoms: _573  and  _574
REMARK  234  A    between atoms: _576  and  _578
REMARK  235  A    between atoms: _578  and  _579
REMARK  236  A    between atoms: _582  and  _584
REMARK  237  A    between atoms: _584  and  _585
REMARK  238  A    between atoms: _584  and  _587
REMARK  239  A    between atoms: _587  and  _588
REMARK  240  A    between atoms: _593  and  _594
REMARK                            x       y       z     vdW  Elec       q    Type
REMARK                         _______ _______ _______ _____ _____    ______ ____
ROOT
ATOM      1  CA  THR A   2      32.590  12.351  21.604  0.00  0.00    +0.176 C 
ENDROOT
BRANCH   1   4
ATOM      2  C   LYS A   1      34.281  11.336  23.015  0.00  0.00    +0.238 C 
ATOM      3  O   LYS A   1      34.258  12.277  23.809  0.00  0.00    -0.274 OA
ATOM      4  N   THR A   2      33.535  11.297  21.923  0.00  0.00    -0.295 N 
ATOM      5  H   THR A   2      33.628  10.489  21.275  0.00  0.00    +0.150 HD
BRANCH   2   6
ATOM      6  CA  LYS A   1      35.213  10.176  23.219  0.00  0.00    +0.145 C 
BRANCH   6   7
ATOM      7  N   LYS A   1      36.484  10.609  22.668  0.00  0.00    -0.238 NA
ATOM      8  H   LYS A   1      36.779  11.597  22.806  0.00  0.00    +0.142 HD
ENDBRANCH   6   7
BRANCH   6   9
ATOM      9  CB  LYS A   1      35.325   9.837  24.712  0.00  0.00    +0.026 C 
BRANCH   9  10
ATOM     10  CG  LYS A   1      36.211   8.637  25.054  0.00  0.00    -0.000 C 
BRANCH  10  11
ATOM     11  CD  LYS A   1      35.656   7.335  24.489  0.00  0.00    -0.024 C 
BRANCH  11  12
ATOM     12  CE  LYS A   1      36.650   6.195  24.655  0.00  0.00    -0.086 C 
BRANCH  12  13
ATOM     13  NZ  LYS A   1      37.616   6.177  23.530  0.00  0.00    +0.380 N 
ATOM     14  HZ1 LYS A   1      38.285   5.392  23.662  0.00  0.00    -0.089 HD
ATOM     15  HZ2 LYS A   1      38.136   7.077  23.507  0.00  0.00    -0.089 HD
ATOM     16  HZ3 LYS A   1      37.102   6.049  22.635  0.00  0.00    -0.089 HD
ENDBRANCH  12  13
ENDBRANCH  11  12
ENDBRANCH  10  11
ENDBRANCH   9  10
ENDBRANCH   6   9
ENDBRANCH   2   6
ENDBRANCH   1   4
BRANCH   1  17
ATOM     17  C   THR A   2      31.525  12.432  22.688  0.00  0.00    +0.243 C 
ATOM     18  N   ASN A   3      31.267  13.654  23.123  0.00  0.00    -0.297 N 
ATOM     19  H   ASN A   3      31.786  14.452  22.704  0.00  0.00    +0.150 HD
ATOM     20  O   THR A   2      30.966  11.421  23.121  0.00  0.00    -0.273 OA
BRANCH  18  21
ATOM     21  CA  ASN A   3      30.290  13.930  24.161  0.00  0.00    +0.158 C 
BRANCH  21  22
ATOM     22  C   ASN A   3      28.891  13.441  23.791  0.00  0.00    +0.241 C 
ATOM     23  N   GLY A   4      28.048  13.345  24.804  0.00  0.00    -0.296 N 
ATOM     24  H   GLY A   4      28.402  13.532  25.764  0.00  0.00    +0.150 HD
ATOM     25  O   ASN A   3      28.599  13.121  22.629  0.00  0.00    -0.273 OA
BRANCH  23  26
ATOM     26  CA  GLY A   4      26.661  12.993  24.639  0.00  0.00    +0.163 C 
BRANCH  26  27
ATOM     27  C   GLY A   4      25.862  13.680  25.724  0.00  0.00    +0.229 C 
ATOM     28  O   GLY A   4      26.426  14.353  26.585  0.00  0.00    -0.286 OA
ENDBRANCH  26  27
ENDBRANCH  23  26
ENDBRANCH  21  22
BRANCH  21  29
ATOM     29  CB  ASN A   3      30.300  15.422  24.515  0.00  0.00    +0.114 C 
BRANCH  29  30
ATOM     30  CG  ASN A   3      31.505  15.823  25.391  0.00  0.00    +0.222 C 
ATOM     31  ND2 ASN A   3      32.190  14.850  25.961  0.00  0.00    -0.329 N 
ATOM     32 HD21 ASN A   3      33.005  15.074  26.567  0.00  0.00    +0.145 HD
ATOM     33 HD22 ASN A   3      31.915  13.859  25.805  0.00  0.00    +0.145 HD
ATOM     34  OD1 ASN A   3      31.798  17.019  25.550  0.00  0.00    -0.275 OA
ENDBRANCH  29  30
ENDBRANCH  21  29
ENDBRANCH  18  21
ENDBRANCH   1  17
BRANCH   1  35
ATOM     35  CB  THR A   2      31.941  12.116  20.220  0.00  0.00    +0.137 C 
ATOM     36  CG2 THR A   2      31.077  13.315  19.797  0.00  0.00    +0.034 C 
BRANCH  35  37
ATOM     37  OG1 THR A   2      32.978  11.912  19.258  0.00  0.00    -0.382 OA
ATOM     38  HG1 THR A   2      32.575  11.760  18.367  0.00  0.00    +0.210 HD
ENDBRANCH  35  37
ENDBRANCH   1  35
TORSDOF 17
REMARK  Name = ../refined-set-2016/3sym/3sym_pocket.pdb
REMARK  240 active torsions:
REMARK  status: ('A' for Active; 'I' for Inactive)
REMARK    1  A    between atoms: _1  and  _3
REMARK    2  A    between atoms: _3  and  _4
REMARK    3  A    between atoms: _3  and  _6
REMARK    4  A    between atoms: _6  and  _7
REMARK    5  A    between atoms: _12  and  _13
REMARK    6  A    between atoms: _15  and  _17
REMARK    7  A    between atoms: _17  and  _18
REMARK    8  A    between atoms: _17  and  _20
REMARK    9  A    between atoms: _20  and  _21
REMARK   10  A    between atoms: _21  and  _22
REMARK   11  A    between atoms: _25  and  _27
REMARK   12  A    between atoms: _27  and  _28
REMARK   13  A    between atoms: _27  and  _30
REMARK   14  A    between atoms: _30  and  _31
REMARK   15  A    between atoms: _36  and  _37
REMARK   16  A    between atoms: _39  and  _41
REMARK   17  A    between atoms: _41  and  _42
REMARK   18  A    between atoms: _44  and  _46
REMARK   19  A    between atoms: _46  and  _47
REMARK   20  A    between atoms: _46  and  _49
REMARK   21  A    between atoms: _49  and  _50
REMARK   22  A    between atoms: _55  and  _57
REMARK   23  A    between atoms: _57  and  _58
REMARK   24  A    between atoms: _60  and  _62
REMARK   25  A    between atoms: _62  and  _63
REMARK   26  A    between atoms: _65  and  _67
REMARK   27  A    between atoms: _67  and  _68
REMARK   28  A    between atoms: _67  and  _70
REMARK   29  A    between atoms: _70  and  _71
REMARK   30  A    between atoms: _74  and  _76
REMARK   31  A    between atoms: _76  and  _77
REMARK   32  A    between atoms: _79  and  _81
REMARK   33  A    between atoms: _81  and  _82
REMARK   34  A    between atoms: _81  and  _84
REMARK   35  A    between atoms: _85  and  _86
REMARK   36  A    between atoms: _86  and  _87
REMARK   37  A    between atoms: _96  and  _98
REMARK   38  A    between atoms: _98  and  _99
REMARK   39  A    between atoms: _98  and  _101
REMARK   40  A    between atoms: _101  and  _102
REMARK   41  A    between atoms: _105  and  _107
REMARK   42  A    between atoms: _107  and  _108
REMARK   43  A    between atoms: _111  and  _113
REMARK   44  A    between atoms: _113  and  _114
REMARK   45  A    between atoms: _113  and  _116
REMARK   46  A    between atoms: _116  and  _117
REMARK   47  A    between atoms: _123  and  _125
REMARK   48  A    between atoms: _125  and  _126
REMARK   49  A    between atoms: _125  and  _128
REMARK   50  A    between atoms: _128  and  _129
REMARK   51  A    between atoms: _134  and  _136
REMARK   52  A    between atoms: _136  and  _137
REMARK   53  A    between atoms: _136  and  _139
REMARK   54  A    between atoms: _139  and  _140
REMARK   55  A    between atoms: _143  and  _145
REMARK   56  A    between atoms: _145  and  _146
REMARK   57  A    between atoms: _145  and  _148
REMARK   58  A    between atoms: _148  and  _149
REMARK   59  A    between atoms: _154  and  _156
REMARK   60  A    between atoms: _156  and  _157
REMARK   61  A    between atoms: _156  and  _159
REMARK   62  A    between atoms: _159  and  _160
REMARK   63  A    between atoms: _166  and  _168
REMARK   64  A    between atoms: _168  and  _169
REMARK   65  A    between atoms: _168  and  _171
REMARK   66  A    between atoms: _171  and  _172
REMARK   67  A    between atoms: _178  and  _180
REMARK   68  A    between atoms: _180  and  _181
REMARK   69  A    between atoms: _180  and  _183
REMARK   70  A    between atoms: _183  and  _184
REMARK   71  A    between atoms: _184  and  _185
REMARK   72  A    between atoms: _185  and  _186
REMARK   73  A    between atoms: _195  and  _197
REMARK   74  A    between atoms: _197  and  _198
REMARK   75  A    between atoms: _197  and  _200
REMARK   76  A    between atoms: _200  and  _201
REMARK   77  A    between atoms: _206  and  _208
REMARK   78  A    between atoms: _208  and  _209
REMARK   79  A    between atoms: _208  and  _211
REMARK   80  A    between atoms: _211  and  _212
REMARK   81  A    between atoms: _215  and  _217
REMARK   82  A    between atoms: _217  and  _218
REMARK   83  A    between atoms: _217  and  _220
REMARK   84  A    between atoms: _220  and  _221
REMARK   85  A    between atoms: _224  and  _226
REMARK   86  A    between atoms: _226  and  _227
REMARK   87  A    between atoms: _226  and  _229
REMARK   88  A    between atoms: _229  and  _230
REMARK   89  A    between atoms: _235  and  _237
REMARK   90  A    between atoms: _237  and  _238
REMARK   91  A    between atoms: _237  and  _240
REMARK   92  A    between atoms: _240  and  _241
REMARK   93  A    between atoms: _244  and  _246
REMARK   94  A    between atoms: _246  and  _247
REMARK   95  A    between atoms: _246  and  _249
REMARK   96  A    between atoms: _249  and  _250
REMARK   97  A    between atoms: _255  and  _257
REMARK   98  A    between atoms: _257  and  _258
REMARK   99  A    between atoms: _257  and  _260
REMARK  100  A    between atoms: _260  and  _261
REMARK  101  A    between atoms: _266  and  _268
REMARK  102  A    between atoms: _268  and  _269
REMARK  103  A    between atoms: _268  and  _271
REMARK  104  A    between atoms: _271  and  _272
REMARK  105  A    between atoms: _275  and  _277
REMARK  106  A    between atoms: _277  and  _278
REMARK  107  A    between atoms: _277  and  _280
REMARK  108  A    between atoms: _283  and  _285
REMARK  109  A    between atoms: _285  and  _286
REMARK  110  A    between atoms: _285  and  _288
REMARK  111  A    between atoms: _288  and  _289
REMARK  112  A    between atoms: _292  and  _294
REMARK  113  A    between atoms: _294  and  _295
REMARK  114  A    between atoms: _298  and  _300
REMARK  115  A    between atoms: _300  and  _301
REMARK  116  A    between atoms: _300  and  _303
REMARK  117  A    between atoms: _303  and  _304
REMARK  118  A    between atoms: _307  and  _309
REMARK  119  A    between atoms: _309  and  _310
REMARK  120  A    between atoms: _309  and  _312
REMARK  121  A    between atoms: _312  and  _313
REMARK  122  A    between atoms: _318  and  _320
REMARK  123  A    between atoms: _320  and  _321
REMARK  124  A    between atoms: _323  and  _325
REMARK  125  A    between atoms: _325  and  _326
REMARK  126  A    between atoms: _325  and  _328
REMARK  127  A    between atoms: _331  and  _333
REMARK  128  A    between atoms: _333  and  _334
REMARK  129  A    between atoms: _337  and  _339
REMARK  130  A    between atoms: _339  and  _340
REMARK  131  A    between atoms: _339  and  _342
REMARK  132  A    between atoms: _342  and  _343
REMARK  133  A    between atoms: _348  and  _350
REMARK  134  A    between atoms: _350  and  _351
REMARK  135  A    between atoms: _350  and  _353
REMARK  136  A    between atoms: _353  and  _354
REMARK  137  A    between atoms: _354  and  _355
REMARK  138  A    between atoms: _355  and  _356
REMARK  139  A    between atoms: _356  and  _357
REMARK  140  A    between atoms: _361  and  _363
REMARK  141  A    between atoms: _363  and  _364
REMARK  142  A    between atoms: _363  and  _366
REMARK  143  A    between atoms: _366  and  _367
REMARK  144  A    between atoms: _370  and  _372
REMARK  145  A    between atoms: _372  and  _373
REMARK  146  A    between atoms: _372  and  _375
REMARK  147  A    between atoms: _375  and  _376
REMARK  148  A    between atoms: _381  and  _383
REMARK  149  A    between atoms: _383  and  _384
REMARK  150  A    between atoms: _386  and  _388
REMARK  151  A    between atoms: _388  and  _389
REMARK  152  A    between atoms: _388  and  _391
REMARK  153  A    between atoms: _391  and  _392
REMARK  154  A    between atoms: _392  and  _393
REMARK  155  A    between atoms: _393  and  _394
REMARK  156  A    between atoms: _394  and  _395
REMARK  157  A    between atoms: _399  and  _401
REMARK  158  A    between atoms: _401  and  _402
REMARK  159  A    between atoms: _401  and  _404
REMARK  160  A    between atoms: _404  and  _405
REMARK  161  A    between atoms: _405  and  _406
REMARK  162  A    between atoms: _406  and  _407
REMARK  163  A    between atoms: _416  and  _418
REMARK  164  A    between atoms: _418  and  _419
REMARK  165  A    between atoms: _418  and  _421
REMARK  166  A    between atoms: _421  and  _422
REMARK  167  A    between atoms: _427  and  _428
REMARK  168  A    between atoms: _430  and  _432
REMARK  169  A    between atoms: _432  and  _433
REMARK  170  A    between atoms: _432  and  _435
REMARK  171  A    between atoms: _435  and  _436
REMARK  172  A    between atoms: _436  and  _437
REMARK  173  A    between atoms: _437  and  _438
REMARK  174  A    between atoms: _438  and  _439
REMARK  175  A    between atoms: _443  and  _445
REMARK  176  A    between atoms: _445  and  _446
REMARK  177  A    between atoms: _445  and  _448
REMARK  178  A    between atoms: _448  and  _449
REMARK  179  A    between atoms: _449  and  _450
REMARK  180  A    between atoms: _455  and  _457
REMARK  181  A    between atoms: _457  and  _458
REMARK  182  A    between atoms: _457  and  _460
REMARK  183  A    between atoms: _460  and  _461
REMARK  184  A    between atoms: _463  and  _465
REMARK  185  A    between atoms: _465  and  _466
REMARK  186  A    between atoms: _465  and  _468
REMARK  187  A    between atoms: _468  and  _469
REMARK  188  A    between atoms: _472  and  _474
REMARK  189  A    between atoms: _474  and  _475
REMARK  190  A    between atoms: _474  and  _477
REMARK  191  A    between atoms: _477  and  _478
REMARK  192  A    between atoms: _478  and  _479
REMARK  193  A    between atoms: _482  and  _484
REMARK  194  A    between atoms: _484  and  _485
REMARK  195  A    between atoms: _488  and  _490
REMARK  196  A    between atoms: _490  and  _491
REMARK  197  A    between atoms: _490  and  _493
REMARK  198  A    between atoms: _493  and  _494
REMARK  199  A    between atoms: _496  and  _498
REMARK  200  A    between atoms: _498  and  _499
REMARK  201  A    between atoms: _501  and  _503
REMARK  202  A    between atoms: _503  and  _504
REMARK  203  A    between atoms: _503  and  _506
REMARK  204  A    between atoms: _506  and  _507
REMARK  205  A    between atoms: _510  and  _512
REMARK  206  A    between atoms: _512  and  _513
REMARK  207  A    between atoms: _515  and  _517
REMARK  208  A    between atoms: _517  and  _518
REMARK  209  A    between atoms: _517  and  _520
REMARK  210  A    between atoms: _520  and  _521
REMARK  211  A    between atoms: _526  and  _528
REMARK  212  A    between atoms: _528  and  _529
REMARK  213  A    between atoms: _528  and  _531
REMARK  214  A    between atoms: _531  and  _532
REMARK  215  A    between atoms: _532  and  _533
REMARK  216  A    between atoms: _540  and  _541
REMARK  217  A    between atoms: _541  and  _557
REMARK  218  A    between atoms: _542  and  _544
REMARK  219  A    between atoms: _544  and  _545
REMARK  220  A    between atoms: _545  and  _546
REMARK  221  A    between atoms: _550  and  _552
REMARK  222  A    between atoms: _552  and  _553
REMARK  223  A    between atoms: _552  and  _560
REMARK  224  A    between atoms: _553  and  _554
REMARK  225  A    between atoms: _554  and  _555
REMARK  226  A    between atoms: _555  and  _556
REMARK  227  A    between atoms: _556  and  _557
REMARK  228  A    between atoms: _562  and  _564
REMARK  229  A    between atoms: _564  and  _565
REMARK  230  A    between atoms: _564  and  _567
REMARK  231  A    between atoms: _567  and  _568
REMARK  232  A    between atoms: _571  and  _573
REMARK  233  A    between atoms: _573  and  _574
REMARK  234  A    between atoms: _576  and  _578
REMARK  235  A    between atoms: _578  and  _579
REMARK  236  A    between atoms: _582  and  _584
REMARK  237  A    between atoms: _584  and  _585
REMARK  238  A    between atoms: _584  and  _587
REMARK  239  A    between atoms: _587  and  _588
REMARK  240  A    between atoms: _593  and  _594
REMARK                            x       y       z     vdW  Elec       q    Type
REMARK                         _______ _______ _______ _____ _____    ______ ____
ROOT
ATOM      1  C   LYS A   1      26.161  30.164  27.274  0.00  0.00    +0.238 C 
ATOM      2  N   ARG A   2      27.264  29.859  27.940  0.00  0.00    -0.298 N 
ATOM      3  H   ARG A   2      27.598  28.875  27.977  0.00  0.00    +0.150 HD
ATOM      4  O   LYS A   1      25.693  31.315  27.271  0.00  0.00    -0.274 OA
ENDROOT
BRANCH   1   5
ATOM      5  CA  LYS A   1      25.446  29.036  26.517  0.00  0.00    +0.145 C 
BRANCH   5   6
ATOM      6  N   LYS A   1      24.127  29.559  26.133  0.00  0.00    -0.238 NA
ATOM      7  H   LYS A   1      23.830  30.465  26.549  0.00  0.00    +0.142 HD
ENDBRANCH   5   6
BRANCH   5   8
ATOM      8  CB  LYS A   1      26.252  28.581  25.291  0.00  0.00    +0.026 C 
BRANCH   8   9
ATOM      9  CG  LYS A   1      26.684  29.707  24.357  0.00  0.00    -0.000 C 
BRANCH   9  10
ATOM     10  CD  LYS A   1      26.400  29.408  22.898  0.00  0.00    -0.024 C 
BRANCH  10  11
ATOM     11  CE  LYS A   1      27.159  28.235  22.307  0.00  0.00    -0.086 C 
BRANCH  11  12
ATOM     12  NZ  LYS A   1      26.383  26.995  22.073  0.00  0.00    +0.380 N 
ATOM     13  HZ1 LYS A   1      25.993  26.656  22.976  0.00  0.00    -0.089 HD
ATOM     14  HZ2 LYS A   1      27.007  26.268  21.669  0.00  0.00    -0.089 HD
ATOM     15  HZ3 LYS A   1      25.606  27.194  21.411  0.00  0.00    -0.089 HD
ENDBRANCH  11  12
ENDBRANCH  10  11
ENDBRANCH   9  10
ENDBRANCH   8   9
ENDBRANCH   5   8
ENDBRANCH   1   5
BRANCH   2  16
ATOM     16  CA  ARG A   2      28.008  30.912  28.621  0.00  0.00    +0.137 C 
BRANCH  16  17
ATOM     17  C   ARG A   2      28.470  31.952  27.597  0.00  0.00    +0.227 C 
ATOM     18  O   ARG A   2      28.722  31.608  26.421  0.00  0.00    -0.286 OA
ENDBRANCH  16  17
BRANCH  16  19
ATOM     19  CB  ARG A   2      29.193  30.339  29.405  0.00  0.00    +0.031 C 
BRANCH  19  20
ATOM     20  CG  ARG A   2      28.752  29.445  30.558  0.00  0.00    +0.045 C 
BRANCH  20  21
ATOM     21  CD  ARG A   2      28.213  30.237  31.737  0.00  0.00    +0.174 C 
BRANCH  21  22
ATOM     22  NE  ARG A   2      29.193  31.204  32.235  0.00  0.00    -0.265 N 
ATOM     23  CZ  ARG A   2      29.808  31.126  33.415  0.00  0.00    +0.342 C 
ATOM     24  NH2 ARG A   2      29.572  30.128  34.258  0.00  0.00    -0.292 N 
ATOM     25 HH21 ARG A   2      30.066  30.092  35.172  0.00  0.00    +0.255 HD
ATOM     26 HH22 ARG A   2      28.893  29.382  34.004  0.00  0.00    +0.255 HD
ATOM     27  NH1 ARG A   2      30.665  32.066  33.756  0.00  0.00    -0.292 N 
ATOM     28 HH11 ARG A   2      31.152  32.018  34.674  0.00  0.00    +0.255 HD
ATOM     29 HH12 ARG A   2      30.855  32.857  33.108  0.00  0.00    +0.255 HD
ATOM     30  HE  ARG A   2      29.427  32.012  31.623  0.00  0.00    +0.259 HD
ENDBRANCH  21  22
ENDBRANCH  20  21
ENDBRANCH  19  20
ENDBRANCH  16  19
ENDBRANCH   2  16
TORSDOF 13
REMARK  Name = ../refined-set-2016/3sym/3sym_pocket.pdb
REMARK  240 active torsions:
REMARK  status: ('A' for Active; 'I' for Inactive)
REMARK    1  A    between atoms: _1  and  _3
REMARK    2  A    between atoms: _3  and  _4
REMARK    3  A    between atoms: _3  and  _6
REMARK    4  A    between atoms: _6  and  _7
REMARK    5  A    between atoms: _12  and  _13
REMARK    6  A    between atoms: _15  and  _17
REMARK    7  A    between atoms: _17  and  _18
REMARK    8  A    between atoms: _17  and  _20
REMARK    9  A    between atoms: _20  and  _21
REMARK   10  A    between atoms: _21  and  _22
REMARK   11  A    between atoms: _25  and  _27
REMARK   12  A    between atoms: _27  and  _28
REMARK   13  A    between atoms: _27  and  _30
REMARK   14  A    between atoms: _30  and  _31
REMARK   15  A    between atoms: _36  and  _37
REMARK   16  A    between atoms: _39  and  _41
REMARK   17  A    between atoms: _41  and  _42
REMARK   18  A    between atoms: _44  and  _46
REMARK   19  A    between atoms: _46  and  _47
REMARK   20  A    between atoms: _46  and  _49
REMARK   21  A    between atoms: _49  and  _50
REMARK   22  A    between atoms: _55  and  _57
REMARK   23  A    between atoms: _57  and  _58
REMARK   24  A    between atoms: _60  and  _62
REMARK   25  A    between atoms: _62  and  _63
REMARK   26  A    between atoms: _65  and  _67
REMARK   27  A    between atoms: _67  and  _68
REMARK   28  A    between atoms: _67  and  _70
REMARK   29  A    between atoms: _70  and  _71
REMARK   30  A    between atoms: _74  and  _76
REMARK   31  A    between atoms: _76  and  _77
REMARK   32  A    between atoms: _79  and  _81
REMARK   33  A    between atoms: _81  and  _82
REMARK   34  A    between atoms: _81  and  _84
REMARK   35  A    between atoms: _85  and  _86
REMARK   36  A    between atoms: _86  and  _87
REMARK   37  A    between atoms: _96  and  _98
REMARK   38  A    between atoms: _98  and  _99
REMARK   39  A    between atoms: _98  and  _101
REMARK   40  A    between atoms: _101  and  _102
REMARK   41  A    between atoms: _105  and  _107
REMARK   42  A    between atoms: _107  and  _108
REMARK   43  A    between atoms: _111  and  _113
REMARK   44  A    between atoms: _113  and  _114
REMARK   45  A    between atoms: _113  and  _116
REMARK   46  A    between atoms: _116  and  _117
REMARK   47  A    between atoms: _123  and  _125
REMARK   48  A    between atoms: _125  and  _126
REMARK   49  A    between atoms: _125  and  _128
REMARK   50  A    between atoms: _128  and  _129
REMARK   51  A    between atoms: _134  and  _136
REMARK   52  A    between atoms: _136  and  _137
REMARK   53  A    between atoms: _136  and  _139
REMARK   54  A    between atoms: _139  and  _140
REMARK   55  A    between atoms: _143  and  _145
REMARK   56  A    between atoms: _145  and  _146
REMARK   57  A    between atoms: _145  and  _148
REMARK   58  A    between atoms: _148  and  _149
REMARK   59  A    between atoms: _154  and  _156
REMARK   60  A    between atoms: _156  and  _157
REMARK   61  A    between atoms: _156  and  _159
REMARK   62  A    between atoms: _159  and  _160
REMARK   63  A    between atoms: _166  and  _168
REMARK   64  A    between atoms: _168  and  _169
REMARK   65  A    between atoms: _168  and  _171
REMARK   66  A    between atoms: _171  and  _172
REMARK   67  A    between atoms: _178  and  _180
REMARK   68  A    between atoms: _180  and  _181
REMARK   69  A    between atoms: _180  and  _183
REMARK   70  A    between atoms: _183  and  _184
REMARK   71  A    between atoms: _184  and  _185
REMARK   72  A    between atoms: _185  and  _186
REMARK   73  A    between atoms: _195  and  _197
REMARK   74  A    between atoms: _197  and  _198
REMARK   75  A    between atoms: _197  and  _200
REMARK   76  A    between atoms: _200  and  _201
REMARK   77  A    between atoms: _206  and  _208
REMARK   78  A    between atoms: _208  and  _209
REMARK   79  A    between atoms: _208  and  _211
REMARK   80  A    between atoms: _211  and  _212
REMARK   81  A    between atoms: _215  and  _217
REMARK   82  A    between atoms: _217  and  _218
REMARK   83  A    between atoms: _217  and  _220
REMARK   84  A    between atoms: _220  and  _221
REMARK   85  A    between atoms: _224  and  _226
REMARK   86  A    between atoms: _226  and  _227
REMARK   87  A    between atoms: _226  and  _229
REMARK   88  A    between atoms: _229  and  _230
REMARK   89  A    between atoms: _235  and  _237
REMARK   90  A    between atoms: _237  and  _238
REMARK   91  A    between atoms: _237  and  _240
REMARK   92  A    between atoms: _240  and  _241
REMARK   93  A    between atoms: _244  and  _246
REMARK   94  A    between atoms: _246  and  _247
REMARK   95  A    between atoms: _246  and  _249
REMARK   96  A    between atoms: _249  and  _250
REMARK   97  A    between atoms: _255  and  _257
REMARK   98  A    between atoms: _257  and  _258
REMARK   99  A    between atoms: _257  and  _260
REMARK  100  A    between atoms: _260  and  _261
REMARK  101  A    between atoms: _266  and  _268
REMARK  102  A    between atoms: _268  and  _269
REMARK  103  A    between atoms: _268  and  _271
REMARK  104  A    between atoms: _271  and  _272
REMARK  105  A    between atoms: _275  and  _277
REMARK  106  A    between atoms: _277  and  _278
REMARK  107  A    between atoms: _277  and  _280
REMARK  108  A    between atoms: _283  and  _285
REMARK  109  A    between atoms: _285  and  _286
REMARK  110  A    between atoms: _285  and  _288
REMARK  111  A    between atoms: _288  and  _289
REMARK  112  A    between atoms: _292  and  _294
REMARK  113  A    between atoms: _294  and  _295
REMARK  114  A    between atoms: _298  and  _300
REMARK  115  A    between atoms: _300  and  _301
REMARK  116  A    between atoms: _300  and  _303
REMARK  117  A    between atoms: _303  and  _304
REMARK  118  A    between atoms: _307  and  _309
REMARK  119  A    between atoms: _309  and  _310
REMARK  120  A    between atoms: _309  and  _312
REMARK  121  A    between atoms: _312  and  _313
REMARK  122  A    between atoms: _318  and  _320
REMARK  123  A    between atoms: _320  and  _321
REMARK  124  A    between atoms: _323  and  _325
REMARK  125  A    between atoms: _325  and  _326
REMARK  126  A    between atoms: _325  and  _328
REMARK  127  A    between atoms: _331  and  _333
REMARK  128  A    between atoms: _333  and  _334
REMARK  129  A    between atoms: _337  and  _339
REMARK  130  A    between atoms: _339  and  _340
REMARK  131  A    between atoms: _339  and  _342
REMARK  132  A    between atoms: _342  and  _343
REMARK  133  A    between atoms: _348  and  _350
REMARK  134  A    between atoms: _350  and  _351
REMARK  135  A    between atoms: _350  and  _353
REMARK  136  A    between atoms: _353  and  _354
REMARK  137  A    between atoms: _354  and  _355
REMARK  138  A    between atoms: _355  and  _356
REMARK  139  A    between atoms: _356  and  _357
REMARK  140  A    between atoms: _361  and  _363
REMARK  141  A    between atoms: _363  and  _364
REMARK  142  A    between atoms: _363  and  _366
REMARK  143  A    between atoms: _366  and  _367
REMARK  144  A    between atoms: _370  and  _372
REMARK  145  A    between atoms: _372  and  _373
REMARK  146  A    between atoms: _372  and  _375
REMARK  147  A    between atoms: _375  and  _376
REMARK  148  A    between atoms: _381  and  _383
REMARK  149  A    between atoms: _383  and  _384
REMARK  150  A    between atoms: _386  and  _388
REMARK  151  A    between atoms: _388  and  _389
REMARK  152  A    between atoms: _388  and  _391
REMARK  153  A    between atoms: _391  and  _392
REMARK  154  A    between atoms: _392  and  _393
REMARK  155  A    between atoms: _393  and  _394
REMARK  156  A    between atoms: _394  and  _395
REMARK  157  A    between atoms: _399  and  _401
REMARK  158  A    between atoms: _401  and  _402
REMARK  159  A    between atoms: _401  and  _404
REMARK  160  A    between atoms: _404  and  _405
REMARK  161  A    between atoms: _405  and  _406
REMARK  162  A    between atoms: _406  and  _407
REMARK  163  A    between atoms: _416  and  _418
REMARK  164  A    between atoms: _418  and  _419
REMARK  165  A    between atoms: _418  and  _421
REMARK  166  A    between atoms: _421  and  _422
REMARK  167  A    between atoms: _427  and  _428
REMARK  168  A    between atoms: _430  and  _432
REMARK  169  A    between atoms: _432  and  _433
REMARK  170  A    between atoms: _432  and  _435
REMARK  171  A    between atoms: _435  and  _436
REMARK  172  A    between atoms: _436  and  _437
REMARK  173  A    between atoms: _437  and  _438
REMARK  174  A    between atoms: _438  and  _439
REMARK  175  A    between atoms: _443  and  _445
REMARK  176  A    between atoms: _445  and  _446
REMARK  177  A    between atoms: _445  and  _448
REMARK  178  A    between atoms: _448  and  _449
REMARK  179  A    between atoms: _449  and  _450
REMARK  180  A    between atoms: _455  and  _457
REMARK  181  A    between atoms: _457  and  _458
REMARK  182  A    between atoms: _457  and  _460
REMARK  183  A    between atoms: _460  and  _461
REMARK  184  A    between atoms: _463  and  _465
REMARK  185  A    between atoms: _465  and  _466
REMARK  186  A    between atoms: _465  and  _468
REMARK  187  A    between atoms: _468  and  _469
REMARK  188  A    between atoms: _472  and  _474
REMARK  189  A    between atoms: _474  and  _475
REMARK  190  A    between atoms: _474  and  _477
REMARK  191  A    between atoms: _477  and  _478
REMARK  192  A    between atoms: _478  and  _479
REMARK  193  A    between atoms: _482  and  _484
REMARK  194  A    between atoms: _484  and  _485
REMARK  195  A    between atoms: _488  and  _490
REMARK  196  A    between atoms: _490  and  _491
REMARK  197  A    between atoms: _490  and  _493
REMARK  198  A    between atoms: _493  and  _494
REMARK  199  A    between atoms: _496  and  _498
REMARK  200  A    between atoms: _498  and  _499
REMARK  201  A    between atoms: _501  and  _503
REMARK  202  A    between atoms: _503  and  _504
REMARK  203  A    between atoms: _503  and  _506
REMARK  204  A    between atoms: _506  and  _507
REMARK  205  A    between atoms: _510  and  _512
REMARK  206  A    between atoms: _512  and  _513
REMARK  207  A    between atoms: _515  and  _517
REMARK  208  A    between atoms: _517  and  _518
REMARK  209  A    between atoms: _517  and  _520
REMARK  210  A    between atoms: _520  and  _521
REMARK  211  A    between atoms: _526  and  _528
REMARK  212  A    between atoms: _528  and  _529
REMARK  213  A    between atoms: _528  and  _531
REMARK  214  A    between atoms: _531  and  _532
REMARK  215  A    between atoms: _532  and  _533
REMARK  216  A    between atoms: _540  and  _541
REMARK  217  A    between atoms: _541  and  _557
REMARK  218  A    between atoms: _542  and  _544
REMARK  219  A    between atoms: _544  and  _545
REMARK  220  A    between atoms: _545  and  _546
REMARK  221  A    between atoms: _550  and  _552
REMARK  222  A    between atoms: _552  and  _553
REMARK  223  A    between atoms: _552  and  _560
REMARK  224  A    between atoms: _553  and  _554
REMARK  225  A    between atoms: _554  and  _555
REMARK  226  A    between atoms: _555  and  _556
REMARK  227  A    between atoms: _556  and  _557
REMARK  228  A    between atoms: _562  and  _564
REMARK  229  A    between atoms: _564  and  _565
REMARK  230  A    between atoms: _564  and  _567
REMARK  231  A    between atoms: _567  and  _568
REMARK  232  A    between atoms: _571  and  _573
REMARK  233  A    between atoms: _573  and  _574
REMARK  234  A    between atoms: _576  and  _578
REMARK  235  A    between atoms: _578  and  _579
REMARK  236  A    between atoms: _582  and  _584
REMARK  237  A    between atoms: _584  and  _585
REMARK  238  A    between atoms: _584  and  _587
REMARK  239  A    between atoms: _587  and  _588
REMARK  240  A    between atoms: _593  and  _594
REMARK                            x       y       z     vdW  Elec       q    Type
REMARK                         _______ _______ _______ _____ _____    ______ ____
ROOT
ATOM      1  C   TYR A   1      33.638  31.996  20.561  0.00  0.00    +0.239 C 
ATOM      2  N   LYS A   2      32.633  32.078  21.429  0.00  0.00    -0.298 N 
ATOM      3  H   LYS A   2      32.800  32.523  22.354  0.00  0.00    +0.150 HD
ATOM      4  O   TYR A   1      33.519  31.502  19.436  0.00  0.00    -0.274 OA
ENDROOT
BRANCH   1   5
ATOM      5  CA  TYR A   1      34.980  32.569  21.007  0.00  0.00    +0.149 C 
BRANCH   5   6
ATOM      6  N   TYR A   1      34.816  33.636  21.997  0.00  0.00    -0.238 NA
ATOM      7  H   TYR A   1      35.145  33.491  22.973  0.00  0.00    +0.142 HD
ENDBRANCH   5   6
BRANCH   5   8
ATOM      8  CB  TYR A   1      35.957  31.470  21.480  0.00  0.00    +0.053 C 
BRANCH   8   9
ATOM      9  CG  TYR A   1      35.378  30.334  22.314  0.00  0.00    -0.020 A 
ATOM     10  CD2 TYR A   1      35.481  30.323  23.711  0.00  0.00    -0.001 A 
ATOM     11  CE2 TYR A   1      34.972  29.260  24.458  0.00  0.00    +0.036 A 
ATOM     12  CZ  TYR A   1      34.373  28.194  23.802  0.00  0.00    +0.134 A 
ATOM     13  CE1 TYR A   1      34.302  28.175  22.426  0.00  0.00    +0.036 A 
ATOM     14  CD1 TYR A   1      34.789  29.232  21.695  0.00  0.00    -0.001 A 
BRANCH  12  15
ATOM     15  OH  TYR A   1      33.826  27.120  24.495  0.00  0.00    -0.506 OA
ATOM     16  HH  TYR A   1      33.450  26.470  23.850  0.00  0.00    +0.292 HD
ENDBRANCH  12  15
ENDBRANCH   8   9
ENDBRANCH   5   8
ENDBRANCH   1   5
BRANCH   2  17
ATOM     17  CA  LYS A   2      31.296  31.560  21.120  0.00  0.00    +0.137 C 
BRANCH  17  18
ATOM     18  C   LYS A   2      30.548  32.494  20.142  0.00  0.00    +0.227 C 
ATOM     19  O   LYS A   2      29.575  32.086  19.495  0.00  0.00    -0.286 OA
ENDBRANCH  17  18
BRANCH  17  20
ATOM     20  CB  LYS A   2      30.512  31.288  22.415  0.00  0.00    +0.028 C 
BRANCH  20  21
ATOM     21  CG  LYS A   2      31.045  30.099  23.212  0.00  0.00    -0.000 C 
BRANCH  21  22
ATOM     22  CD  LYS A   2      30.637  30.145  24.684  0.00  0.00    -0.024 C 
BRANCH  22  23
ATOM     23  CE  LYS A   2      31.031  28.897  25.473  0.00  0.00    -0.086 C 
BRANCH  23  24
ATOM     24  NZ  LYS A   2      30.258  27.678  25.026  0.00  0.00    +0.380 N 
ATOM     25  HZ1 LYS A   2      30.556  26.855  25.587  0.00  0.00    -0.089 HD
ATOM     26  HZ2 LYS A   2      29.241  27.844  25.165  0.00  0.00    -0.089 HD
ATOM     27  HZ3 LYS A   2      30.447  27.500  24.019  0.00  0.00    -0.089 HD
ENDBRANCH  23  24
ENDBRANCH  22  23
ENDBRANCH  21  22
ENDBRANCH  20  21
ENDBRANCH  17  20
ENDBRANCH   2  17
TORSDOF 12
REMARK  Name = ../refined-set-2016/3sym/3sym_pocket.pdb
REMARK  240 active torsions:
REMARK  status: ('A' for Active; 'I' for Inactive)
REMARK    1  A    between atoms: _1  and  _3
REMARK    2  A    between atoms: _3  and  _4
REMARK    3  A    between atoms: _3  and  _6
REMARK    4  A    between atoms: _6  and  _7
REMARK    5  A    between atoms: _12  and  _13
REMARK    6  A    between atoms: _15  and  _17
REMARK    7  A    between atoms: _17  and  _18
REMARK    8  A    between atoms: _17  and  _20
REMARK    9  A    between atoms: _20  and  _21
REMARK   10  A    between atoms: _21  and  _22
REMARK   11  A    between atoms: _25  and  _27
REMARK   12  A    between atoms: _27  and  _28
REMARK   13  A    between atoms: _27  and  _30
REMARK   14  A    between atoms: _30  and  _31
REMARK   15  A    between atoms: _36  and  _37
REMARK   16  A    between atoms: _39  and  _41
REMARK   17  A    between atoms: _41  and  _42
REMARK   18  A    between atoms: _44  and  _46
REMARK   19  A    between atoms: _46  and  _47
REMARK   20  A    between atoms: _46  and  _49
REMARK   21  A    between atoms: _49  and  _50
REMARK   22  A    between atoms: _55  and  _57
REMARK   23  A    between atoms: _57  and  _58
REMARK   24  A    between atoms: _60  and  _62
REMARK   25  A    between atoms: _62  and  _63
REMARK   26  A    between atoms: _65  and  _67
REMARK   27  A    between atoms: _67  and  _68
REMARK   28  A    between atoms: _67  and  _70
REMARK   29  A    between atoms: _70  and  _71
REMARK   30  A    between atoms: _74  and  _76
REMARK   31  A    between atoms: _76  and  _77
REMARK   32  A    between atoms: _79  and  _81
REMARK   33  A    between atoms: _81  and  _82
REMARK   34  A    between atoms: _81  and  _84
REMARK   35  A    between atoms: _85  and  _86
REMARK   36  A    between atoms: _86  and  _87
REMARK   37  A    between atoms: _96  and  _98
REMARK   38  A    between atoms: _98  and  _99
REMARK   39  A    between atoms: _98  and  _101
REMARK   40  A    between atoms: _101  and  _102
REMARK   41  A    between atoms: _105  and  _107
REMARK   42  A    between atoms: _107  and  _108
REMARK   43  A    between atoms: _111  and  _113
REMARK   44  A    between atoms: _113  and  _114
REMARK   45  A    between atoms: _113  and  _116
REMARK   46  A    between atoms: _116  and  _117
REMARK   47  A    between atoms: _123  and  _125
REMARK   48  A    between atoms: _125  and  _126
REMARK   49  A    between atoms: _125  and  _128
REMARK   50  A    between atoms: _128  and  _129
REMARK   51  A    between atoms: _134  and  _136
REMARK   52  A    between atoms: _136  and  _137
REMARK   53  A    between atoms: _136  and  _139
REMARK   54  A    between atoms: _139  and  _140
REMARK   55  A    between atoms: _143  and  _145
REMARK   56  A    between atoms: _145  and  _146
REMARK   57  A    between atoms: _145  and  _148
REMARK   58  A    between atoms: _148  and  _149
REMARK   59  A    between atoms: _154  and  _156
REMARK   60  A    between atoms: _156  and  _157
REMARK   61  A    between atoms: _156  and  _159
REMARK   62  A    between atoms: _159  and  _160
REMARK   63  A    between atoms: _166  and  _168
REMARK   64  A    between atoms: _168  and  _169
REMARK   65  A    between atoms: _168  and  _171
REMARK   66  A    between atoms: _171  and  _172
REMARK   67  A    between atoms: _178  and  _180
REMARK   68  A    between atoms: _180  and  _181
REMARK   69  A    between atoms: _180  and  _183
REMARK   70  A    between atoms: _183  and  _184
REMARK   71  A    between atoms: _184  and  _185
REMARK   72  A    between atoms: _185  and  _186
REMARK   73  A    between atoms: _195  and  _197
REMARK   74  A    between atoms: _197  and  _198
REMARK   75  A    between atoms: _197  and  _200
REMARK   76  A    between atoms: _200  and  _201
REMARK   77  A    between atoms: _206  and  _208
REMARK   78  A    between atoms: _208  and  _209
REMARK   79  A    between atoms: _208  and  _211
REMARK   80  A    between atoms: _211  and  _212
REMARK   81  A    between atoms: _215  and  _217
REMARK   82  A    between atoms: _217  and  _218
REMARK   83  A    between atoms: _217  and  _220
REMARK   84  A    between atoms: _220  and  _221
REMARK   85  A    between atoms: _224  and  _226
REMARK   86  A    between atoms: _226  and  _227
REMARK   87  A    between atoms: _226  and  _229
REMARK   88  A    between atoms: _229  and  _230
REMARK   89  A    between atoms: _235  and  _237
REMARK   90  A    between atoms: _237  and  _238
REMARK   91  A    between atoms: _237  and  _240
REMARK   92  A    between atoms: _240  and  _241
REMARK   93  A    between atoms: _244  and  _246
REMARK   94  A    between atoms: _246  and  _247
REMARK   95  A    between atoms: _246  and  _249
REMARK   96  A    between atoms: _249  and  _250
REMARK   97  A    between atoms: _255  and  _257
REMARK   98  A    between atoms: _257  and  _258
REMARK   99  A    between atoms: _257  and  _260
REMARK  100  A    between atoms: _260  and  _261
REMARK  101  A    between atoms: _266  and  _268
REMARK  102  A    between atoms: _268  and  _269
REMARK  103  A    between atoms: _268  and  _271
REMARK  104  A    between atoms: _271  and  _272
REMARK  105  A    between atoms: _275  and  _277
REMARK  106  A    between atoms: _277  and  _278
REMARK  107  A    between atoms: _277  and  _280
REMARK  108  A    between atoms: _283  and  _285
REMARK  109  A    between atoms: _285  and  _286
REMARK  110  A    between atoms: _285  and  _288
REMARK  111  A    between atoms: _288  and  _289
REMARK  112  A    between atoms: _292  and  _294
REMARK  113  A    between atoms: _294  and  _295
REMARK  114  A    between atoms: _298  and  _300
REMARK  115  A    between atoms: _300  and  _301
REMARK  116  A    between atoms: _300  and  _303
REMARK  117  A    between atoms: _303  and  _304
REMARK  118  A    between atoms: _307  and  _309
REMARK  119  A    between atoms: _309  and  _310
REMARK  120  A    between atoms: _309  and  _312
REMARK  121  A    between atoms: _312  and  _313
REMARK  122  A    between atoms: _318  and  _320
REMARK  123  A    between atoms: _320  and  _321
REMARK  124  A    between atoms: _323  and  _325
REMARK  125  A    between atoms: _325  and  _326
REMARK  126  A    between atoms: _325  and  _328
REMARK  127  A    between atoms: _331  and  _333
REMARK  128  A    between atoms: _333  and  _334
REMARK  129  A    between atoms: _337  and  _339
REMARK  130  A    between atoms: _339  and  _340
REMARK  131  A    between atoms: _339  and  _342
REMARK  132  A    between atoms: _342  and  _343
REMARK  133  A    between atoms: _348  and  _350
REMARK  134  A    between atoms: _350  and  _351
REMARK  135  A    between atoms: _350  and  _353
REMARK  136  A    between atoms: _353  and  _354
REMARK  137  A    between atoms: _354  and  _355
REMARK  138  A    between atoms: _355  and  _356
REMARK  139  A    between atoms: _356  and  _357
REMARK  140  A    between atoms: _361  and  _363
REMARK  141  A    between atoms: _363  and  _364
REMARK  142  A    between atoms: _363  and  _366
REMARK  143  A    between atoms: _366  and  _367
REMARK  144  A    between atoms: _370  and  _372
REMARK  145  A    between atoms: _372  and  _373
REMARK  146  A    between atoms: _372  and  _375
REMARK  147  A    between atoms: _375  and  _376
REMARK  148  A    between atoms: _381  and  _383
REMARK  149  A    between atoms: _383  and  _384
REMARK  150  A    between atoms: _386  and  _388
REMARK  151  A    between atoms: _388  and  _389
REMARK  152  A    between atoms: _388  and  _391
REMARK  153  A    between atoms: _391  and  _392
REMARK  154  A    between atoms: _392  and  _393
REMARK  155  A    between atoms: _393  and  _394
REMARK  156  A    between atoms: _394  and  _395
REMARK  157  A    between atoms: _399  and  _401
REMARK  158  A    between atoms: _401  and  _402
REMARK  159  A    between atoms: _401  and  _404
REMARK  160  A    between atoms: _404  and  _405
REMARK  161  A    between atoms: _405  and  _406
REMARK  162  A    between atoms: _406  and  _407
REMARK  163  A    between atoms: _416  and  _418
REMARK  164  A    between atoms: _418  and  _419
REMARK  165  A    between atoms: _418  and  _421
REMARK  166  A    between atoms: _421  and  _422
REMARK  167  A    between atoms: _427  and  _428
REMARK  168  A    between atoms: _430  and  _432
REMARK  169  A    between atoms: _432  and  _433
REMARK  170  A    between atoms: _432  and  _435
REMARK  171  A    between atoms: _435  and  _436
REMARK  172  A    between atoms: _436  and  _437
REMARK  173  A    between atoms: _437  and  _438
REMARK  174  A    between atoms: _438  and  _439
REMARK  175  A    between atoms: _443  and  _445
REMARK  176  A    between atoms: _445  and  _446
REMARK  177  A    between atoms: _445  and  _448
REMARK  178  A    between atoms: _448  and  _449
REMARK  179  A    between atoms: _449  and  _450
REMARK  180  A    between atoms: _455  and  _457
REMARK  181  A    between atoms: _457  and  _458
REMARK  182  A    between atoms: _457  and  _460
REMARK  183  A    between atoms: _460  and  _461
REMARK  184  A    between atoms: _463  and  _465
REMARK  185  A    between atoms: _465  and  _466
REMARK  186  A    between atoms: _465  and  _468
REMARK  187  A    between atoms: _468  and  _469
REMARK  188  A    between atoms: _472  and  _474
REMARK  189  A    between atoms: _474  and  _475
REMARK  190  A    between atoms: _474  and  _477
REMARK  191  A    between atoms: _477  and  _478
REMARK  192  A    between atoms: _478  and  _479
REMARK  193  A    between atoms: _482  and  _484
REMARK  194  A    between atoms: _484  and  _485
REMARK  195  A    between atoms: _488  and  _490
REMARK  196  A    between atoms: _490  and  _491
REMARK  197  A    between atoms: _490  and  _493
REMARK  198  A    between atoms: _493  and  _494
REMARK  199  A    between atoms: _496  and  _498
REMARK  200  A    between atoms: _498  and  _499
REMARK  201  A    between atoms: _501  and  _503
REMARK  202  A    between atoms: _503  and  _504
REMARK  203  A    between atoms: _503  and  _506
REMARK  204  A    between atoms: _506  and  _507
REMARK  205  A    between atoms: _510  and  _512
REMARK  206  A    between atoms: _512  and  _513
REMARK  207  A    between atoms: _515  and  _517
REMARK  208  A    between atoms: _517  and  _518
REMARK  209  A    between atoms: _517  and  _520
REMARK  210  A    between atoms: _520  and  _521
REMARK  211  A    between atoms: _526  and  _528
REMARK  212  A    between atoms: _528  and  _529
REMARK  213  A    between atoms: _528  and  _531
REMARK  214  A    between atoms: _531  and  _532
REMARK  215  A    between atoms: _532  and  _533
REMARK  216  A    between atoms: _540  and  _541
REMARK  217  A    between atoms: _541  and  _557
REMARK  218  A    between atoms: _542  and  _544
REMARK  219  A    between atoms: _544  and  _545
REMARK  220  A    between atoms: _545  and  _546
REMARK  221  A    between atoms: _550  and  _552
REMARK  222  A    between atoms: _552  and  _553
REMARK  223  A    between atoms: _552  and  _560
REMARK  224  A    between atoms: _553  and  _554
REMARK  225  A    between atoms: _554  and  _555
REMARK  226  A    between atoms: _555  and  _556
REMARK  227  A    between atoms: _556  and  _557
REMARK  228  A    between atoms: _562  and  _564
REMARK  229  A    between atoms: _564  and  _565
REMARK  230  A    between atoms: _564  and  _567
REMARK  231  A    between atoms: _567  and  _568
REMARK  232  A    between atoms: _571  and  _573
REMARK  233  A    between atoms: _573  and  _574
REMARK  234  A    between atoms: _576  and  _578
REMARK  235  A    between atoms: _578  and  _579
REMARK  236  A    between atoms: _582  and  _584
REMARK  237  A    between atoms: _584  and  _585
REMARK  238  A    between atoms: _584  and  _587
REMARK  239  A    between atoms: _587  and  _588
REMARK  240  A    between atoms: _593  and  _594
REMARK                            x       y       z     vdW  Elec       q    Type
REMARK                         _______ _______ _______ _____ _____    ______ ____
ROOT
ATOM      1  CB  GLN A   1      26.070  25.533  17.156  0.00  0.00    +0.035 C 
ENDROOT
BRANCH   1   2
ATOM      2  CA  GLN A   1      26.286  27.049  17.249  0.00  0.00    +0.134 C 
BRANCH   2   3
ATOM      3  N   GLN A   1      25.081  27.773  16.799  0.00  0.00    -0.239 NA
ATOM      4  H   GLN A   1      24.942  27.919  15.779  0.00  0.00    +0.142 HD
ENDBRANCH   2   3
BRANCH   2   5
ATOM      5  C   GLN A   1      27.405  27.537  16.345  0.00  0.00    +0.224 C 
ATOM      6  O   GLN A   1      27.783  26.887  15.381  0.00  0.00    -0.287 OA
ENDBRANCH   2   5
ENDBRANCH   1   2
BRANCH   1   7
ATOM      7  CG  GLN A   1      24.804  25.029  17.866  0.00  0.00    +0.087 C 
BRANCH   7   8
ATOM      8  CD  GLN A   1      24.868  25.082  19.401  0.00  0.00    +0.219 C 
ATOM      9  NE2 GLN A   1      23.701  24.994  20.054  0.00  0.00    -0.329 N 
ATOM     10 HE21 GLN A   1      23.683  25.023  21.093  0.00  0.00    +0.145 HD
ATOM     11 HE22 GLN A   1      22.813  24.897  19.521  0.00  0.00    +0.145 HD
ATOM     12  OE1 GLN A   1      25.940  25.198  19.988  0.00  0.00    -0.275 OA
ENDBRANCH   7   8
ENDBRANCH   1   7
TORSDOF 5
REMARK  Name = ../refined-set-2016/3sym/3sym_pocket.pdb
REMARK  240 active torsions:
REMARK  status: ('A' for Active; 'I' for Inactive)
REMARK    1  A    between atoms: _1  and  _3
REMARK    2  A    between atoms: _3  and  _4
REMARK    3  A    between atoms: _3  and  _6
REMARK    4  A    between atoms: _6  and  _7
REMARK    5  A    between atoms: _12  and  _13
REMARK    6  A    between atoms: _15  and  _17
REMARK    7  A    between atoms: _17  and  _18
REMARK    8  A    between atoms: _17  and  _20
REMARK    9  A    between atoms: _20  and  _21
REMARK   10  A    between atoms: _21  and  _22
REMARK   11  A    between atoms: _25  and  _27
REMARK   12  A    between atoms: _27  and  _28
REMARK   13  A    between atoms: _27  and  _30
REMARK   14  A    between atoms: _30  and  _31
REMARK   15  A    between atoms: _36  and  _37
REMARK   16  A    between atoms: _39  and  _41
REMARK   17  A    between atoms: _41  and  _42
REMARK   18  A    between atoms: _44  and  _46
REMARK   19  A    between atoms: _46  and  _47
REMARK   20  A    between atoms: _46  and  _49
REMARK   21  A    between atoms: _49  and  _50
REMARK   22  A    between atoms: _55  and  _57
REMARK   23  A    between atoms: _57  and  _58
REMARK   24  A    between atoms: _60  and  _62
REMARK   25  A    between atoms: _62  and  _63
REMARK   26  A    between atoms: _65  and  _67
REMARK   27  A    between atoms: _67  and  _68
REMARK   28  A    between atoms: _67  and  _70
REMARK   29  A    between atoms: _70  and  _71
REMARK   30  A    between atoms: _74  and  _76
REMARK   31  A    between atoms: _76  and  _77
REMARK   32  A    between atoms: _79  and  _81
REMARK   33  A    between atoms: _81  and  _82
REMARK   34  A    between atoms: _81  and  _84
REMARK   35  A    between atoms: _85  and  _86
REMARK   36  A    between atoms: _86  and  _87
REMARK   37  A    between atoms: _96  and  _98
REMARK   38  A    between atoms: _98  and  _99
REMARK   39  A    between atoms: _98  and  _101
REMARK   40  A    between atoms: _101  and  _102
REMARK   41  A    between atoms: _105  and  _107
REMARK   42  A    between atoms: _107  and  _108
REMARK   43  A    between atoms: _111  and  _113
REMARK   44  A    between atoms: _113  and  _114
REMARK   45  A    between atoms: _113  and  _116
REMARK   46  A    between atoms: _116  and  _117
REMARK   47  A    between atoms: _123  and  _125
REMARK   48  A    between atoms: _125  and  _126
REMARK   49  A    between atoms: _125  and  _128
REMARK   50  A    between atoms: _128  and  _129
REMARK   51  A    between atoms: _134  and  _136
REMARK   52  A    between atoms: _136  and  _137
REMARK   53  A    between atoms: _136  and  _139
REMARK   54  A    between atoms: _139  and  _140
REMARK   55  A    between atoms: _143  and  _145
REMARK   56  A    between atoms: _145  and  _146
REMARK   57  A    between atoms: _145  and  _148
REMARK   58  A    between atoms: _148  and  _149
REMARK   59  A    between atoms: _154  and  _156
REMARK   60  A    between atoms: _156  and  _157
REMARK   61  A    between atoms: _156  and  _159
REMARK   62  A    between atoms: _159  and  _160
REMARK   63  A    between atoms: _166  and  _168
REMARK   64  A    between atoms: _168  and  _169
REMARK   65  A    between atoms: _168  and  _171
REMARK   66  A    between atoms: _171  and  _172
REMARK   67  A    between atoms: _178  and  _180
REMARK   68  A    between atoms: _180  and  _181
REMARK   69  A    between atoms: _180  and  _183
REMARK   70  A    between atoms: _183  and  _184
REMARK   71  A    between atoms: _184  and  _185
REMARK   72  A    between atoms: _185  and  _186
REMARK   73  A    between atoms: _195  and  _197
REMARK   74  A    between atoms: _197  and  _198
REMARK   75  A    between atoms: _197  and  _200
REMARK   76  A    between atoms: _200  and  _201
REMARK   77  A    between atoms: _206  and  _208
REMARK   78  A    between atoms: _208  and  _209
REMARK   79  A    between atoms: _208  and  _211
REMARK   80  A    between atoms: _211  and  _212
REMARK   81  A    between atoms: _215  and  _217
REMARK   82  A    between atoms: _217  and  _218
REMARK   83  A    between atoms: _217  and  _220
REMARK   84  A    between atoms: _220  and  _221
REMARK   85  A    between atoms: _224  and  _226
REMARK   86  A    between atoms: _226  and  _227
REMARK   87  A    between atoms: _226  and  _229
REMARK   88  A    between atoms: _229  and  _230
REMARK   89  A    between atoms: _235  and  _237
REMARK   90  A    between atoms: _237  and  _238
REMARK   91  A    between atoms: _237  and  _240
REMARK   92  A    between atoms: _240  and  _241
REMARK   93  A    between atoms: _244  and  _246
REMARK   94  A    between atoms: _246  and  _247
REMARK   95  A    between atoms: _246  and  _249
REMARK   96  A    between atoms: _249  and  _250
REMARK   97  A    between atoms: _255  and  _257
REMARK   98  A    between atoms: _257  and  _258
REMARK   99  A    between atoms: _257  and  _260
REMARK  100  A    between atoms: _260  and  _261
REMARK  101  A    between atoms: _266  and  _268
REMARK  102  A    between atoms: _268  and  _269
REMARK  103  A    between atoms: _268  and  _271
REMARK  104  A    between atoms: _271  and  _272
REMARK  105  A    between atoms: _275  and  _277
REMARK  106  A    between atoms: _277  and  _278
REMARK  107  A    between atoms: _277  and  _280
REMARK  108  A    between atoms: _283  and  _285
REMARK  109  A    between atoms: _285  and  _286
REMARK  110  A    between atoms: _285  and  _288
REMARK  111  A    between atoms: _288  and  _289
REMARK  112  A    between atoms: _292  and  _294
REMARK  113  A    between atoms: _294  and  _295
REMARK  114  A    between atoms: _298  and  _300
REMARK  115  A    between atoms: _300  and  _301
REMARK  116  A    between atoms: _300  and  _303
REMARK  117  A    between atoms: _303  and  _304
REMARK  118  A    between atoms: _307  and  _309
REMARK  119  A    between atoms: _309  and  _310
REMARK  120  A    between atoms: _309  and  _312
REMARK  121  A    between atoms: _312  and  _313
REMARK  122  A    between atoms: _318  and  _320
REMARK  123  A    between atoms: _320  and  _321
REMARK  124  A    between atoms: _323  and  _325
REMARK  125  A    between atoms: _325  and  _326
REMARK  126  A    between atoms: _325  and  _328
REMARK  127  A    between atoms: _331  and  _333
REMARK  128  A    between atoms: _333  and  _334
REMARK  129  A    between atoms: _337  and  _339
REMARK  130  A    between atoms: _339  and  _340
REMARK  131  A    between atoms: _339  and  _342
REMARK  132  A    between atoms: _342  and  _343
REMARK  133  A    between atoms: _348  and  _350
REMARK  134  A    between atoms: _350  and  _351
REMARK  135  A    between atoms: _350  and  _353
REMARK  136  A    between atoms: _353  and  _354
REMARK  137  A    between atoms: _354  and  _355
REMARK  138  A    between atoms: _355  and  _356
REMARK  139  A    between atoms: _356  and  _357
REMARK  140  A    between atoms: _361  and  _363
REMARK  141  A    between atoms: _363  and  _364
REMARK  142  A    between atoms: _363  and  _366
REMARK  143  A    between atoms: _366  and  _367
REMARK  144  A    between atoms: _370  and  _372
REMARK  145  A    between atoms: _372  and  _373
REMARK  146  A    between atoms: _372  and  _375
REMARK  147  A    between atoms: _375  and  _376
REMARK  148  A    between atoms: _381  and  _383
REMARK  149  A    between atoms: _383  and  _384
REMARK  150  A    between atoms: _386  and  _388
REMARK  151  A    between atoms: _388  and  _389
REMARK  152  A    between atoms: _388  and  _391
REMARK  153  A    between atoms: _391  and  _392
REMARK  154  A    between atoms: _392  and  _393
REMARK  155  A    between atoms: _393  and  _394
REMARK  156  A    between atoms: _394  and  _395
REMARK  157  A    between atoms: _399  and  _401
REMARK  158  A    between atoms: _401  and  _402
REMARK  159  A    between atoms: _401  and  _404
REMARK  160  A    between atoms: _404  and  _405
REMARK  161  A    between atoms: _405  and  _406
REMARK  162  A    between atoms: _406  and  _407
REMARK  163  A    between atoms: _416  and  _418
REMARK  164  A    between atoms: _418  and  _419
REMARK  165  A    between atoms: _418  and  _421
REMARK  166  A    between atoms: _421  and  _422
REMARK  167  A    between atoms: _427  and  _428
REMARK  168  A    between atoms: _430  and  _432
REMARK  169  A    between atoms: _432  and  _433
REMARK  170  A    between atoms: _432  and  _435
REMARK  171  A    between atoms: _435  and  _436
REMARK  172  A    between atoms: _436  and  _437
REMARK  173  A    between atoms: _437  and  _438
REMARK  174  A    between atoms: _438  and  _439
REMARK  175  A    between atoms: _443  and  _445
REMARK  176  A    between atoms: _445  and  _446
REMARK  177  A    between atoms: _445  and  _448
REMARK  178  A    between atoms: _448  and  _449
REMARK  179  A    between atoms: _449  and  _450
REMARK  180  A    between atoms: _455  and  _457
REMARK  181  A    between atoms: _457  and  _458
REMARK  182  A    between atoms: _457  and  _460
REMARK  183  A    between atoms: _460  and  _461
REMARK  184  A    between atoms: _463  and  _465
REMARK  185  A    between atoms: _465  and  _466
REMARK  186  A    between atoms: _465  and  _468
REMARK  187  A    between atoms: _468  and  _469
REMARK  188  A    between atoms: _472  and  _474
REMARK  189  A    between atoms: _474  and  _475
REMARK  190  A    between atoms: _474  and  _477
REMARK  191  A    between atoms: _477  and  _478
REMARK  192  A    between atoms: _478  and  _479
REMARK  193  A    between atoms: _482  and  _484
REMARK  194  A    between atoms: _484  and  _485
REMARK  195  A    between atoms: _488  and  _490
REMARK  196  A    between atoms: _490  and  _491
REMARK  197  A    between atoms: _490  and  _493
REMARK  198  A    between atoms: _493  and  _494
REMARK  199  A    between atoms: _496  and  _498
REMARK  200  A    between atoms: _498  and  _499
REMARK  201  A    between atoms: _501  and  _503
REMARK  202  A    between atoms: _503  and  _504
REMARK  203  A    between atoms: _503  and  _506
REMARK  204  A    between atoms: _506  and  _507
REMARK  205  A    between atoms: _510  and  _512
REMARK  206  A    between atoms: _512  and  _513
REMARK  207  A    between atoms: _515  and  _517
REMARK  208  A    between atoms: _517  and  _518
REMARK  209  A    between atoms: _517  and  _520
REMARK  210  A    between atoms: _520  and  _521
REMARK  211  A    between atoms: _526  and  _528
REMARK  212  A    between atoms: _528  and  _529
REMARK  213  A    between atoms: _528  and  _531
REMARK  214  A    between atoms: _531  and  _532
REMARK  215  A    between atoms: _532  and  _533
REMARK  216  A    between atoms: _540  and  _541
REMARK  217  A    between atoms: _541  and  _557
REMARK  218  A    between atoms: _542  and  _544
REMARK  219  A    between atoms: _544  and  _545
REMARK  220  A    between atoms: _545  and  _546
REMARK  221  A    between atoms: _550  and  _552
REMARK  222  A    between atoms: _552  and  _553
REMARK  223  A    between atoms: _552  and  _560
REMARK  224  A    between atoms: _553  and  _554
REMARK  225  A    between atoms: _554  and  _555
REMARK  226  A    between atoms: _555  and  _556
REMARK  227  A    between atoms: _556  and  _557
REMARK  228  A    between atoms: _562  and  _564
REMARK  229  A    between atoms: _564  and  _565
REMARK  230  A    between atoms: _564  and  _567
REMARK  231  A    between atoms: _567  and  _568
REMARK  232  A    between atoms: _571  and  _573
REMARK  233  A    between atoms: _573  and  _574
REMARK  234  A    between atoms: _576  and  _578
REMARK  235  A    between atoms: _578  and  _579
REMARK  236  A    between atoms: _582  and  _584
REMARK  237  A    between atoms: _584  and  _585
REMARK  238  A    between atoms: _584  and  _587
REMARK  239  A    between atoms: _587  and  _588
REMARK  240  A    between atoms: _593  and  _594
REMARK                            x       y       z     vdW  Elec       q    Type
REMARK                         _______ _______ _______ _____ _____    ______ ____
ROOT
ATOM      1  CA  SER A   1      31.965  29.379  17.345  0.00  0.00    +0.163 C 
ENDROOT
BRANCH   1   2
ATOM      2  N   SER A   1      30.592  29.175  16.930  0.00  0.00    -0.237 NA
ATOM      3  H   SER A   1      30.084  28.337  17.279  0.00  0.00    +0.142 HD
ENDBRANCH   1   2
BRANCH   1   4
ATOM      4  C   SER A   1      32.925  29.380  16.143  0.00  0.00    +0.227 C 
ATOM      5  O   SER A   1      32.715  28.662  15.180  0.00  0.00    -0.287 OA
ENDBRANCH   1   4
BRANCH   1   6
ATOM      6  CB  SER A   1      32.350  28.248  18.283  0.00  0.00    +0.162 C 
BRANCH   6   7
ATOM      7  OG  SER A   1      32.101  27.003  17.644  0.00  0.00    -0.380 OA
ATOM      8  H   SER A   1      31.139  26.935  17.419  0.00  0.00    +0.211 HD
ENDBRANCH   6   7
ENDBRANCH   1   6
TORSDOF 4
REMARK  Name = ../refined-set-2016/3sym/3sym_pocket.pdb
REMARK  240 active torsions:
REMARK  status: ('A' for Active; 'I' for Inactive)
REMARK    1  A    between atoms: _1  and  _3
REMARK    2  A    between atoms: _3  and  _4
REMARK    3  A    between atoms: _3  and  _6
REMARK    4  A    between atoms: _6  and  _7
REMARK    5  A    between atoms: _12  and  _13
REMARK    6  A    between atoms: _15  and  _17
REMARK    7  A    between atoms: _17  and  _18
REMARK    8  A    between atoms: _17  and  _20
REMARK    9  A    between atoms: _20  and  _21
REMARK   10  A    between atoms: _21  and  _22
REMARK   11  A    between atoms: _25  and  _27
REMARK   12  A    between atoms: _27  and  _28
REMARK   13  A    between atoms: _27  and  _30
REMARK   14  A    between atoms: _30  and  _31
REMARK   15  A    between atoms: _36  and  _37
REMARK   16  A    between atoms: _39  and  _41
REMARK   17  A    between atoms: _41  and  _42
REMARK   18  A    between atoms: _44  and  _46
REMARK   19  A    between atoms: _46  and  _47
REMARK   20  A    between atoms: _46  and  _49
REMARK   21  A    between atoms: _49  and  _50
REMARK   22  A    between atoms: _55  and  _57
REMARK   23  A    between atoms: _57  and  _58
REMARK   24  A    between atoms: _60  and  _62
REMARK   25  A    between atoms: _62  and  _63
REMARK   26  A    between atoms: _65  and  _67
REMARK   27  A    between atoms: _67  and  _68
REMARK   28  A    between atoms: _67  and  _70
REMARK   29  A    between atoms: _70  and  _71
REMARK   30  A    between atoms: _74  and  _76
REMARK   31  A    between atoms: _76  and  _77
REMARK   32  A    between atoms: _79  and  _81
REMARK   33  A    between atoms: _81  and  _82
REMARK   34  A    between atoms: _81  and  _84
REMARK   35  A    between atoms: _85  and  _86
REMARK   36  A    between atoms: _86  and  _87
REMARK   37  A    between atoms: _96  and  _98
REMARK   38  A    between atoms: _98  and  _99
REMARK   39  A    between atoms: _98  and  _101
REMARK   40  A    between atoms: _101  and  _102
REMARK   41  A    between atoms: _105  and  _107
REMARK   42  A    between atoms: _107  and  _108
REMARK   43  A    between atoms: _111  and  _113
REMARK   44  A    between atoms: _113  and  _114
REMARK   45  A    between atoms: _113  and  _116
REMARK   46  A    between atoms: _116  and  _117
REMARK   47  A    between atoms: _123  and  _125
REMARK   48  A    between atoms: _125  and  _126
REMARK   49  A    between atoms: _125  and  _128
REMARK   50  A    between atoms: _128  and  _129
REMARK   51  A    between atoms: _134  and  _136
REMARK   52  A    between atoms: _136  and  _137
REMARK   53  A    between atoms: _136  and  _139
REMARK   54  A    between atoms: _139  and  _140
REMARK   55  A    between atoms: _143  and  _145
REMARK   56  A    between atoms: _145  and  _146
REMARK   57  A    between atoms: _145  and  _148
REMARK   58  A    between atoms: _148  and  _149
REMARK   59  A    between atoms: _154  and  _156
REMARK   60  A    between atoms: _156  and  _157
REMARK   61  A    between atoms: _156  and  _159
REMARK   62  A    between atoms: _159  and  _160
REMARK   63  A    between atoms: _166  and  _168
REMARK   64  A    between atoms: _168  and  _169
REMARK   65  A    between atoms: _168  and  _171
REMARK   66  A    between atoms: _171  and  _172
REMARK   67  A    between atoms: _178  and  _180
REMARK   68  A    between atoms: _180  and  _181
REMARK   69  A    between atoms: _180  and  _183
REMARK   70  A    between atoms: _183  and  _184
REMARK   71  A    between atoms: _184  and  _185
REMARK   72  A    between atoms: _185  and  _186
REMARK   73  A    between atoms: _195  and  _197
REMARK   74  A    between atoms: _197  and  _198
REMARK   75  A    between atoms: _197  and  _200
REMARK   76  A    between atoms: _200  and  _201
REMARK   77  A    between atoms: _206  and  _208
REMARK   78  A    between atoms: _208  and  _209
REMARK   79  A    between atoms: _208  and  _211
REMARK   80  A    between atoms: _211  and  _212
REMARK   81  A    between atoms: _215  and  _217
REMARK   82  A    between atoms: _217  and  _218
REMARK   83  A    between atoms: _217  and  _220
REMARK   84  A    between atoms: _220  and  _221
REMARK   85  A    between atoms: _224  and  _226
REMARK   86  A    between atoms: _226  and  _227
REMARK   87  A    between atoms: _226  and  _229
REMARK   88  A    between atoms: _229  and  _230
REMARK   89  A    between atoms: _235  and  _237
REMARK   90  A    between atoms: _237  and  _238
REMARK   91  A    between atoms: _237  and  _240
REMARK   92  A    between atoms: _240  and  _241
REMARK   93  A    between atoms: _244  and  _246
REMARK   94  A    between atoms: _246  and  _247
REMARK   95  A    between atoms: _246  and  _249
REMARK   96  A    between atoms: _249  and  _250
REMARK   97  A    between atoms: _255  and  _257
REMARK   98  A    between atoms: _257  and  _258
REMARK   99  A    between atoms: _257  and  _260
REMARK  100  A    between atoms: _260  and  _261
REMARK  101  A    between atoms: _266  and  _268
REMARK  102  A    between atoms: _268  and  _269
REMARK  103  A    between atoms: _268  and  _271
REMARK  104  A    between atoms: _271  and  _272
REMARK  105  A    between atoms: _275  and  _277
REMARK  106  A    between atoms: _277  and  _278
REMARK  107  A    between atoms: _277  and  _280
REMARK  108  A    between atoms: _283  and  _285
REMARK  109  A    between atoms: _285  and  _286
REMARK  110  A    between atoms: _285  and  _288
REMARK  111  A    between atoms: _288  and  _289
REMARK  112  A    between atoms: _292  and  _294
REMARK  113  A    between atoms: _294  and  _295
REMARK  114  A    between atoms: _298  and  _300
REMARK  115  A    between atoms: _300  and  _301
REMARK  116  A    between atoms: _300  and  _303
REMARK  117  A    between atoms: _303  and  _304
REMARK  118  A    between atoms: _307  and  _309
REMARK  119  A    between atoms: _309  and  _310
REMARK  120  A    between atoms: _309  and  _312
REMARK  121  A    between atoms: _312  and  _313
REMARK  122  A    between atoms: _318  and  _320
REMARK  123  A    between atoms: _320  and  _321
REMARK  124  A    between atoms: _323  and  _325
REMARK  125  A    between atoms: _325  and  _326
REMARK  126  A    between atoms: _325  and  _328
REMARK  127  A    between atoms: _331  and  _333
REMARK  128  A    between atoms: _333  and  _334
REMARK  129  A    between atoms: _337  and  _339
REMARK  130  A    between atoms: _339  and  _340
REMARK  131  A    between atoms: _339  and  _342
REMARK  132  A    between atoms: _342  and  _343
REMARK  133  A    between atoms: _348  and  _350
REMARK  134  A    between atoms: _350  and  _351
REMARK  135  A    between atoms: _350  and  _353
REMARK  136  A    between atoms: _353  and  _354
REMARK  137  A    between atoms: _354  and  _355
REMARK  138  A    between atoms: _355  and  _356
REMARK  139  A    between atoms: _356  and  _357
REMARK  140  A    between atoms: _361  and  _363
REMARK  141  A    between atoms: _363  and  _364
REMARK  142  A    between atoms: _363  and  _366
REMARK  143  A    between atoms: _366  and  _367
REMARK  144  A    between atoms: _370  and  _372
REMARK  145  A    between atoms: _372  and  _373
REMARK  146  A    between atoms: _372  and  _375
REMARK  147  A    between atoms: _375  and  _376
REMARK  148  A    between atoms: _381  and  _383
REMARK  149  A    between atoms: _383  and  _384
REMARK  150  A    between atoms: _386  and  _388
REMARK  151  A    between atoms: _388  and  _389
REMARK  152  A    between atoms: _388  and  _391
REMARK  153  A    between atoms: _391  and  _392
REMARK  154  A    between atoms: _392  and  _393
REMARK  155  A    between atoms: _393  and  _394
REMARK  156  A    between atoms: _394  and  _395
REMARK  157  A    between atoms: _399  and  _401
REMARK  158  A    between atoms: _401  and  _402
REMARK  159  A    between atoms: _401  and  _404
REMARK  160  A    between atoms: _404  and  _405
REMARK  161  A    between atoms: _405  and  _406
REMARK  162  A    between atoms: _406  and  _407
REMARK  163  A    between atoms: _416  and  _418
REMARK  164  A    between atoms: _418  and  _419
REMARK  165  A    between atoms: _418  and  _421
REMARK  166  A    between atoms: _421  and  _422
REMARK  167  A    between atoms: _427  and  _428
REMARK  168  A    between atoms: _430  and  _432
REMARK  169  A    between atoms: _432  and  _433
REMARK  170  A    between atoms: _432  and  _435
REMARK  171  A    between atoms: _435  and  _436
REMARK  172  A    between atoms: _436  and  _437
REMARK  173  A    between atoms: _437  and  _438
REMARK  174  A    between atoms: _438  and  _439
REMARK  175  A    between atoms: _443  and  _445
REMARK  176  A    between atoms: _445  and  _446
REMARK  177  A    between atoms: _445  and  _448
REMARK  178  A    between atoms: _448  and  _449
REMARK  179  A    between atoms: _449  and  _450
REMARK  180  A    between atoms: _455  and  _457
REMARK  181  A    between atoms: _457  and  _458
REMARK  182  A    between atoms: _457  and  _460
REMARK  183  A    between atoms: _460  and  _461
REMARK  184  A    between atoms: _463  and  _465
REMARK  185  A    between atoms: _465  and  _466
REMARK  186  A    between atoms: _465  and  _468
REMARK  187  A    between atoms: _468  and  _469
REMARK  188  A    between atoms: _472  and  _474
REMARK  189  A    between atoms: _474  and  _475
REMARK  190  A    between atoms: _474  and  _477
REMARK  191  A    between atoms: _477  and  _478
REMARK  192  A    between atoms: _478  and  _479
REMARK  193  A    between atoms: _482  and  _484
REMARK  194  A    between atoms: _484  and  _485
REMARK  195  A    between atoms: _488  and  _490
REMARK  196  A    between atoms: _490  and  _491
REMARK  197  A    between atoms: _490  and  _493
REMARK  198  A    between atoms: _493  and  _494
REMARK  199  A    between atoms: _496  and  _498
REMARK  200  A    between atoms: _498  and  _499
REMARK  201  A    between atoms: _501  and  _503
REMARK  202  A    between atoms: _503  and  _504
REMARK  203  A    between atoms: _503  and  _506
REMARK  204  A    between atoms: _506  and  _507
REMARK  205  A    between atoms: _510  and  _512
REMARK  206  A    between atoms: _512  and  _513
REMARK  207  A    between atoms: _515  and  _517
REMARK  208  A    between atoms: _517  and  _518
REMARK  209  A    between atoms: _517  and  _520
REMARK  210  A    between atoms: _520  and  _521
REMARK  211  A    between atoms: _526  and  _528
REMARK  212  A    between atoms: _528  and  _529
REMARK  213  A    between atoms: _528  and  _531
REMARK  214  A    between atoms: _531  and  _532
REMARK  215  A    between atoms: _532  and  _533
REMARK  216  A    between atoms: _540  and  _541
REMARK  217  A    between atoms: _541  and  _557
REMARK  218  A    between atoms: _542  and  _544
REMARK  219  A    between atoms: _544  and  _545
REMARK  220  A    between atoms: _545  and  _546
REMARK  221  A    between atoms: _550  and  _552
REMARK  222  A    between atoms: _552  and  _553
REMARK  223  A    between atoms: _552  and  _560
REMARK  224  A    between atoms: _553  and  _554
REMARK  225  A    between atoms: _554  and  _555
REMARK  226  A    between atoms: _555  and  _556
REMARK  227  A    between atoms: _556  and  _557
REMARK  228  A    between atoms: _562  and  _564
REMARK  229  A    between atoms: _564  and  _565
REMARK  230  A    between atoms: _564  and  _567
REMARK  231  A    between atoms: _567  and  _568
REMARK  232  A    between atoms: _571  and  _573
REMARK  233  A    between atoms: _573  and  _574
REMARK  234  A    between atoms: _576  and  _578
REMARK  235  A    between atoms: _578  and  _579
REMARK  236  A    between atoms: _582  and  _584
REMARK  237  A    between atoms: _584  and  _585
REMARK  238  A    between atoms: _584  and  _587
REMARK  239  A    between atoms: _587  and  _588
REMARK  240  A    between atoms: _593  and  _594
REMARK                            x       y       z     vdW  Elec       q    Type
REMARK                         _______ _______ _______ _____ _____    ______ ____
ROOT
ATOM      1  CA  GLY A   7      23.765  22.225  23.951  0.00  0.00    +0.176 C 
ENDROOT
BRANCH   1   2
ATOM      2  C   GLY A   7      23.277  21.864  22.548  0.00  0.00    +0.243 C 
ATOM      3  O   GLY A   7      22.083  21.629  22.328  0.00  0.00    -0.273 OA
ATOM      4  N   ASN A   8      24.213  21.808  21.599  0.00  0.00    -0.297 N 
ATOM      5  H   ASN A   8      25.201  22.008  21.854  0.00  0.00    +0.150 HD
BRANCH   4   6
ATOM      6  CA  ASN A   8      23.893  21.473  20.206  0.00  0.00    +0.158 C 
BRANCH   6   7
ATOM      7  C   ASN A   8      23.062  20.175  20.068  0.00  0.00    +0.241 C 
ATOM      8  N   MET A   9      23.502  19.157  20.793  0.00  0.00    -0.297 N 
ATOM      9  H   MET A   9      24.386  19.283  21.327  0.00  0.00    +0.150 HD
ATOM     10  O   ASN A   8      22.029  20.133  19.381  0.00  0.00    -0.273 OA
BRANCH   8  11
ATOM     11  CA  MET A   9      22.829  17.882  20.887  0.00  0.00    +0.149 C 
BRANCH  11  12
ATOM     12  C   MET A   9      21.432  18.013  21.512  0.00  0.00    +0.241 C 
ATOM     13  N   UNK A  10      21.295  18.853  22.532  0.00  0.00    -0.298 N 
ATOM     14  H   UNK A  10      22.111  19.400  22.875  0.00  0.00    +0.150 HD
ATOM     15  O   MET A   9      20.482  17.384  21.052  0.00  0.00    -0.273 OA
BRANCH  13  16
ATOM     16  C   UNK A  10      19.996  19.001  23.164  0.00  0.00    +0.137 C 
BRANCH  16  17
ATOM     17  C   UNK A  10      18.985  19.508  22.166  0.00  0.00    +0.227 C 
ATOM     18  O   UNK A  10      17.835  19.039  22.138  0.00  0.00    -0.286 OA
ENDBRANCH  16  17
BRANCH  16  19
ATOM     19  C   UNK A  10      20.056  19.908  24.386  0.00  0.00    +0.028 C 
BRANCH  19  20
ATOM     20  C   UNK A  10      20.945  19.329  25.489  0.00  0.00    -0.000 C 
BRANCH  20  21
ATOM     21  C   UNK A  10      21.231  20.451  26.478  0.00  0.00    -0.023 C 
BRANCH  21  22
ATOM     22  C   UNK A  10      22.399  20.118  27.389  0.00  0.00    -0.081 C 
BRANCH  22  23
ATOM     23  N   UNK A  10      22.710  21.266  28.215  0.00  0.00    +0.387 N 
ATOM     24  H   UNK A  10      22.014  22.008  27.999  0.00  0.00    -0.084 HD
ATOM     25  H   UNK A  10      22.609  20.976  29.209  0.00  0.00    -0.084 HD
BRANCH  23  26
ATOM     26  C   UNK A  10      24.015  21.837  28.060  0.00  0.00    -0.051 C 
BRANCH  26  27
ATOM     27  C   UNK A  10      24.188  23.074  28.911  0.00  0.00    -0.004 A 
ATOM     28  C   UNK A  10      25.400  23.909  28.765  0.00  0.00    +0.024 A 
ATOM     29  C   UNK A  10      25.572  25.043  29.548  0.00  0.00    +0.096 A 
ATOM     30  N   UNK A  10      24.630  25.411  30.438  0.00  0.00    -0.245 NA
ATOM     31  C   UNK A  10      23.476  24.736  30.653  0.00  0.00    +0.098 A 
ATOM     32  C   UNK A  10      22.489  25.219  31.668  0.00  0.00    +0.056 C 
ATOM     33  C   UNK A  10      23.183  23.501  29.899  0.00  0.00    +0.203 A 
ATOM     34  O   UNK A  10      22.023  22.807  30.091  0.00  0.00    -0.286 OA
BRANCH  28  35
ATOM     35  C   UNK A  10      26.444  23.517  27.748  0.00  0.00    +0.181 C 
BRANCH  35  36
ATOM     36  O   UNK A  10      26.090  24.240  26.564  0.00  0.00    -0.265 OA
BRANCH  36  37
ATOM     37  P   UNK A  10      27.145  24.353  25.349  0.00  0.00    +0.533 P 
ATOM     38  O   UNK A  10      27.610  22.970  24.965  0.00  0.00    -0.115 OA
ATOM     39  O   UNK A  10      28.232  25.178  26.003  0.00  0.00    -0.115 OA
ATOM     40  O   UNK A  10      26.321  25.080  24.295  0.00  0.00    -0.222 OA
ENDBRANCH  36  37
ENDBRANCH  35  36
ENDBRANCH  28  35
ENDBRANCH  26  27
ENDBRANCH  23  26
ENDBRANCH  22  23
ENDBRANCH  21  22
ENDBRANCH  20  21
ENDBRANCH  19  20
ENDBRANCH  16  19
ENDBRANCH  13  16
ENDBRANCH  11  12
BRANCH  11  41
ATOM     41  CB  MET A   9      23.711  16.886  21.659  0.00  0.00    +0.041 C 
BRANCH  41  42
ATOM     42  CG  MET A   9      25.074  16.661  21.014  0.00  0.00    +0.060 C 
BRANCH  42  43
ATOM     43  SD  MET A   9      26.256  15.901  22.145  0.00  0.00    -0.139 S 
ATOM     44  CE  MET A   9      27.799  16.013  21.243  0.00  0.00    +0.069 C 
ENDBRANCH  42  43
ENDBRANCH  41  42
ENDBRANCH  11  41
ENDBRANCH   8  11
ENDBRANCH   6   7
BRANCH   6  45
ATOM     45  CB  ASN A   8      25.156  21.472  19.324  0.00  0.00    +0.114 C 
BRANCH  45  46
ATOM     46  CG  ASN A   8      26.315  20.637  19.890  0.00  0.00    +0.222 C 
ATOM     47  ND2 ASN A   8      26.076  19.882  20.977  0.00  0.00    -0.329 N 
ATOM     48 HD21 ASN A   8      25.135  19.891  21.420  0.00  0.00    +0.145 HD
ATOM     49 HD22 ASN A   8      26.832  19.289  21.375  0.00  0.00    +0.145 HD
ATOM     50  OD1 ASN A   8      27.430  20.660  19.321  0.00  0.00    -0.275 OA
ENDBRANCH  45  46
ENDBRANCH   6  45
ENDBRANCH   4   6
ENDBRANCH   1   2
BRANCH   1  52
ATOM     51  C   THR A   6      25.024  20.153  24.062  0.00  0.00    +0.243 C 
ATOM     52  N   GLY A   7      24.983  21.466  24.259  0.00  0.00    -0.295 N 
ATOM     53  H   GLY A   7      25.819  21.959  24.634  0.00  0.00    +0.150 HD
ATOM     54  O   THR A   6      24.019  19.498  23.804  0.00  0.00    -0.273 OA
BRANCH  51  55
ATOM     55  CA  THR A   6      26.389  19.492  24.156  0.00  0.00    +0.176 C 
BRANCH  55  57
ATOM     56  C   GLY A   5      28.434  20.248  23.030  0.00  0.00    +0.243 C 
ATOM     57  N   THR A   6      27.435  20.485  23.884  0.00  0.00    -0.295 N 
ATOM     58  H   THR A   6      27.397  21.403  24.372  0.00  0.00    +0.150 HD
ATOM     59  O   GLY A   5      28.691  19.121  22.590  0.00  0.00    -0.273 OA
BRANCH  56  60
ATOM     60  CA  GLY A   5      29.299  21.435  22.647  0.00  0.00    +0.176 C 
BRANCH  60  62
ATOM     61  C   SER A   4      31.169  20.490  21.379  0.00  0.00    +0.243 C 
ATOM     62  N   GLY A   5      30.690  21.016  22.508  0.00  0.00    -0.295 N 
ATOM     63  H   GLY A   5      31.331  21.132  23.318  0.00  0.00    +0.150 HD
ATOM     64  O   SER A   4      30.601  20.572  20.274  0.00  0.00    -0.273 OA
BRANCH  61  65
ATOM     65  CA  SER A   4      32.478  19.750  21.514  0.00  0.00    +0.178 C 
BRANCH  65  67
ATOM     66  C   ALA A   3      34.796  20.479  21.418  0.00  0.00    +0.241 C 
ATOM     67  N   SER A   4      33.570  20.612  21.927  0.00  0.00    -0.295 N 
ATOM     68  H   SER A   4      33.393  21.351  22.637  0.00  0.00    +0.150 HD
ATOM     69  O   ALA A   3      35.087  19.614  20.576  0.00  0.00    -0.273 OA
BRANCH  66  70
ATOM     70  CA  ALA A   3      35.871  21.483  21.918  0.00  0.00    +0.149 C 
ATOM     71  CB  ALA A   3      36.379  21.112  23.310  0.00  0.00    +0.031 C 
BRANCH  70  73
ATOM     72  C   GLU A   2      34.949  23.386  20.718  0.00  0.00    +0.241 C 
ATOM     73  N   ALA A   3      35.431  22.891  21.856  0.00  0.00    -0.297 N 
ATOM     74  H   ALA A   3      35.497  23.495  22.700  0.00  0.00    +0.150 HD
ATOM     75  O   GLU A   2      34.775  22.689  19.746  0.00  0.00    -0.273 OA
BRANCH  72  76
ATOM     76  CA  GLU A   2      34.620  24.880  20.648  0.00  0.00    +0.149 C 
BRANCH  76  79
ATOM     77  C   THR A   1      36.759  26.011  20.271  0.00  0.00    +0.241 C 
ATOM     78  O   THR A   1      37.092  25.889  21.442  0.00  0.00    -0.274 OA
ATOM     79  N   GLU A   2      35.598  25.553  19.794  0.00  0.00    -0.297 N 
ATOM     80  H   GLU A   2      35.383  25.679  18.784  0.00  0.00    +0.150 HD
BRANCH  77  81
ATOM     81  CA  THR A   1      37.704  26.713  19.300  0.00  0.00    +0.172 C 
BRANCH  81  82
ATOM     82  N   THR A   1      37.678  26.218  17.922  0.00  0.00    -0.236 NA
ATOM     83  H   THR A   1      36.881  26.450  17.296  0.00  0.00    +0.142 HD
ENDBRANCH  81  82
BRANCH  81  84
ATOM     84  CB  THR A   1      37.478  28.234  19.347  0.00  0.00    +0.135 C 
ATOM     85  CG2 THR A   1      38.448  28.911  18.407  0.00  0.00    +0.034 C 
BRANCH  84  86
ATOM     86  OG1 THR A   1      36.134  28.535  18.951  0.00  0.00    -0.383 OA
ATOM     87  HG1 THR A   1      35.982  28.208  18.029  0.00  0.00    +0.210 HD
ENDBRANCH  84  86
ENDBRANCH  81  84
ENDBRANCH  77  81
ENDBRANCH  76  79
BRANCH  76  88
ATOM     88  CB  GLU A   2      33.201  25.089  20.107  0.00  0.00    +0.041 C 
BRANCH  88  89
ATOM     89  CG  GLU A   2      32.074  24.671  21.055  0.00  0.00    +0.116 C 
BRANCH  89  90
ATOM     90  CD  GLU A   2      32.077  25.432  22.379  0.00  0.00    +0.365 C 
ATOM     91  OE2 GLU A   2      32.931  25.123  23.246  0.00  0.00    -0.246 OA
ATOM     92  OE1 GLU A   2      31.224  26.339  22.569  0.00  0.00    -0.246 OA
ENDBRANCH  89  90
ENDBRANCH  88  89
ENDBRANCH  76  88
ENDBRANCH  72  76
ENDBRANCH  70  73
ENDBRANCH  66  70
ENDBRANCH  65  67
BRANCH  65  93
ATOM     93  CB  SER A   4      32.274  18.581  22.480  0.00  0.00    +0.166 C 
BRANCH  93  94
ATOM     94  OG  SER A   4      31.132  17.830  22.072  0.00  0.00    -0.380 OA
ATOM     95  H   SER A   4      30.333  18.414  22.083  0.00  0.00    +0.211 HD
ENDBRANCH  93  94
ENDBRANCH  65  93
ENDBRANCH  61  65
ENDBRANCH  60  62
ENDBRANCH  56  60
ENDBRANCH  55  57
BRANCH  55  96
ATOM     96  CB  THR A   6      26.550  18.793  25.520  0.00  0.00    +0.137 C 
ATOM     97  CG2 THR A   6      27.786  17.914  25.546  0.00  0.00    +0.034 C 
BRANCH  96  98
ATOM     98  OG1 THR A   6      26.636  19.768  26.559  0.00  0.00    -0.382 OA
ATOM     99  HG1 THR A   6      26.739  19.311  27.431  0.00  0.00    +0.210 HD
ENDBRANCH  96  98
ENDBRANCH  55  96
ENDBRANCH  51  55
ENDBRANCH   1  52
TORSDOF 44
REMARK  Name = ../refined-set-2016/3sym/3sym_pocket.pdb
REMARK  240 active torsions:
REMARK  status: ('A' for Active; 'I' for Inactive)
REMARK    1  A    between atoms: _1  and  _3
REMARK    2  A    between atoms: _3  and  _4
REMARK    3  A    between atoms: _3  and  _6
REMARK    4  A    between atoms: _6  and  _7
REMARK    5  A    between atoms: _12  and  _13
REMARK    6  A    between atoms: _15  and  _17
REMARK    7  A    between atoms: _17  and  _18
REMARK    8  A    between atoms: _17  and  _20
REMARK    9  A    between atoms: _20  and  _21
REMARK   10  A    between atoms: _21  and  _22
REMARK   11  A    between atoms: _25  and  _27
REMARK   12  A    between atoms: _27  and  _28
REMARK   13  A    between atoms: _27  and  _30
REMARK   14  A    between atoms: _30  and  _31
REMARK   15  A    between atoms: _36  and  _37
REMARK   16  A    between atoms: _39  and  _41
REMARK   17  A    between atoms: _41  and  _42
REMARK   18  A    between atoms: _44  and  _46
REMARK   19  A    between atoms: _46  and  _47
REMARK   20  A    between atoms: _46  and  _49
REMARK   21  A    between atoms: _49  and  _50
REMARK   22  A    between atoms: _55  and  _57
REMARK   23  A    between atoms: _57  and  _58
REMARK   24  A    between atoms: _60  and  _62
REMARK   25  A    between atoms: _62  and  _63
REMARK   26  A    between atoms: _65  and  _67
REMARK   27  A    between atoms: _67  and  _68
REMARK   28  A    between atoms: _67  and  _70
REMARK   29  A    between atoms: _70  and  _71
REMARK   30  A    between atoms: _74  and  _76
REMARK   31  A    between atoms: _76  and  _77
REMARK   32  A    between atoms: _79  and  _81
REMARK   33  A    between atoms: _81  and  _82
REMARK   34  A    between atoms: _81  and  _84
REMARK   35  A    between atoms: _85  and  _86
REMARK   36  A    between atoms: _86  and  _87
REMARK   37  A    between atoms: _96  and  _98
REMARK   38  A    between atoms: _98  and  _99
REMARK   39  A    between atoms: _98  and  _101
REMARK   40  A    between atoms: _101  and  _102
REMARK   41  A    between atoms: _105  and  _107
REMARK   42  A    between atoms: _107  and  _108
REMARK   43  A    between atoms: _111  and  _113
REMARK   44  A    between atoms: _113  and  _114
REMARK   45  A    between atoms: _113  and  _116
REMARK   46  A    between atoms: _116  and  _117
REMARK   47  A    between atoms: _123  and  _125
REMARK   48  A    between atoms: _125  and  _126
REMARK   49  A    between atoms: _125  and  _128
REMARK   50  A    between atoms: _128  and  _129
REMARK   51  A    between atoms: _134  and  _136
REMARK   52  A    between atoms: _136  and  _137
REMARK   53  A    between atoms: _136  and  _139
REMARK   54  A    between atoms: _139  and  _140
REMARK   55  A    between atoms: _143  and  _145
REMARK   56  A    between atoms: _145  and  _146
REMARK   57  A    between atoms: _145  and  _148
REMARK   58  A    between atoms: _148  and  _149
REMARK   59  A    between atoms: _154  and  _156
REMARK   60  A    between atoms: _156  and  _157
REMARK   61  A    between atoms: _156  and  _159
REMARK   62  A    between atoms: _159  and  _160
REMARK   63  A    between atoms: _166  and  _168
REMARK   64  A    between atoms: _168  and  _169
REMARK   65  A    between atoms: _168  and  _171
REMARK   66  A    between atoms: _171  and  _172
REMARK   67  A    between atoms: _178  and  _180
REMARK   68  A    between atoms: _180  and  _181
REMARK   69  A    between atoms: _180  and  _183
REMARK   70  A    between atoms: _183  and  _184
REMARK   71  A    between atoms: _184  and  _185
REMARK   72  A    between atoms: _185  and  _186
REMARK   73  A    between atoms: _195  and  _197
REMARK   74  A    between atoms: _197  and  _198
REMARK   75  A    between atoms: _197  and  _200
REMARK   76  A    between atoms: _200  and  _201
REMARK   77  A    between atoms: _206  and  _208
REMARK   78  A    between atoms: _208  and  _209
REMARK   79  A    between atoms: _208  and  _211
REMARK   80  A    between atoms: _211  and  _212
REMARK   81  A    between atoms: _215  and  _217
REMARK   82  A    between atoms: _217  and  _218
REMARK   83  A    between atoms: _217  and  _220
REMARK   84  A    between atoms: _220  and  _221
REMARK   85  A    between atoms: _224  and  _226
REMARK   86  A    between atoms: _226  and  _227
REMARK   87  A    between atoms: _226  and  _229
REMARK   88  A    between atoms: _229  and  _230
REMARK   89  A    between atoms: _235  and  _237
REMARK   90  A    between atoms: _237  and  _238
REMARK   91  A    between atoms: _237  and  _240
REMARK   92  A    between atoms: _240  and  _241
REMARK   93  A    between atoms: _244  and  _246
REMARK   94  A    between atoms: _246  and  _247
REMARK   95  A    between atoms: _246  and  _249
REMARK   96  A    between atoms: _249  and  _250
REMARK   97  A    between atoms: _255  and  _257
REMARK   98  A    between atoms: _257  and  _258
REMARK   99  A    between atoms: _257  and  _260
REMARK  100  A    between atoms: _260  and  _261
REMARK  101  A    between atoms: _266  and  _268
REMARK  102  A    between atoms: _268  and  _269
REMARK  103  A    between atoms: _268  and  _271
REMARK  104  A    between atoms: _271  and  _272
REMARK  105  A    between atoms: _275  and  _277
REMARK  106  A    between atoms: _277  and  _278
REMARK  107  A    between atoms: _277  and  _280
REMARK  108  A    between atoms: _283  and  _285
REMARK  109  A    between atoms: _285  and  _286
REMARK  110  A    between atoms: _285  and  _288
REMARK  111  A    between atoms: _288  and  _289
REMARK  112  A    between atoms: _292  and  _294
REMARK  113  A    between atoms: _294  and  _295
REMARK  114  A    between atoms: _298  and  _300
REMARK  115  A    between atoms: _300  and  _301
REMARK  116  A    between atoms: _300  and  _303
REMARK  117  A    between atoms: _303  and  _304
REMARK  118  A    between atoms: _307  and  _309
REMARK  119  A    between atoms: _309  and  _310
REMARK  120  A    between atoms: _309  and  _312
REMARK  121  A    between atoms: _312  and  _313
REMARK  122  A    between atoms: _318  and  _320
REMARK  123  A    between atoms: _320  and  _321
REMARK  124  A    between atoms: _323  and  _325
REMARK  125  A    between atoms: _325  and  _326
REMARK  126  A    between atoms: _325  and  _328
REMARK  127  A    between atoms: _331  and  _333
REMARK  128  A    between atoms: _333  and  _334
REMARK  129  A    between atoms: _337  and  _339
REMARK  130  A    between atoms: _339  and  _340
REMARK  131  A    between atoms: _339  and  _342
REMARK  132  A    between atoms: _342  and  _343
REMARK  133  A    between atoms: _348  and  _350
REMARK  134  A    between atoms: _350  and  _351
REMARK  135  A    between atoms: _350  and  _353
REMARK  136  A    between atoms: _353  and  _354
REMARK  137  A    between atoms: _354  and  _355
REMARK  138  A    between atoms: _355  and  _356
REMARK  139  A    between atoms: _356  and  _357
REMARK  140  A    between atoms: _361  and  _363
REMARK  141  A    between atoms: _363  and  _364
REMARK  142  A    between atoms: _363  and  _366
REMARK  143  A    between atoms: _366  and  _367
REMARK  144  A    between atoms: _370  and  _372
REMARK  145  A    between atoms: _372  and  _373
REMARK  146  A    between atoms: _372  and  _375
REMARK  147  A    between atoms: _375  and  _376
REMARK  148  A    between atoms: _381  and  _383
REMARK  149  A    between atoms: _383  and  _384
REMARK  150  A    between atoms: _386  and  _388
REMARK  151  A    between atoms: _388  and  _389
REMARK  152  A    between atoms: _388  and  _391
REMARK  153  A    between atoms: _391  and  _392
REMARK  154  A    between atoms: _392  and  _393
REMARK  155  A    between atoms: _393  and  _394
REMARK  156  A    between atoms: _394  and  _395
REMARK  157  A    between atoms: _399  and  _401
REMARK  158  A    between atoms: _401  and  _402
REMARK  159  A    between atoms: _401  and  _404
REMARK  160  A    between atoms: _404  and  _405
REMARK  161  A    between atoms: _405  and  _406
REMARK  162  A    between atoms: _406  and  _407
REMARK  163  A    between atoms: _416  and  _418
REMARK  164  A    between atoms: _418  and  _419
REMARK  165  A    between atoms: _418  and  _421
REMARK  166  A    between atoms: _421  and  _422
REMARK  167  A    between atoms: _427  and  _428
REMARK  168  A    between atoms: _430  and  _432
REMARK  169  A    between atoms: _432  and  _433
REMARK  170  A    between atoms: _432  and  _435
REMARK  171  A    between atoms: _435  and  _436
REMARK  172  A    between atoms: _436  and  _437
REMARK  173  A    between atoms: _437  and  _438
REMARK  174  A    between atoms: _438  and  _439
REMARK  175  A    between atoms: _443  and  _445
REMARK  176  A    between atoms: _445  and  _446
REMARK  177  A    between atoms: _445  and  _448
REMARK  178  A    between atoms: _448  and  _449
REMARK  179  A    between atoms: _449  and  _450
REMARK  180  A    between atoms: _455  and  _457
REMARK  181  A    between atoms: _457  and  _458
REMARK  182  A    between atoms: _457  and  _460
REMARK  183  A    between atoms: _460  and  _461
REMARK  184  A    between atoms: _463  and  _465
REMARK  185  A    between atoms: _465  and  _466
REMARK  186  A    between atoms: _465  and  _468
REMARK  187  A    between atoms: _468  and  _469
REMARK  188  A    between atoms: _472  and  _474
REMARK  189  A    between atoms: _474  and  _475
REMARK  190  A    between atoms: _474  and  _477
REMARK  191  A    between atoms: _477  and  _478
REMARK  192  A    between atoms: _478  and  _479
REMARK  193  A    between atoms: _482  and  _484
REMARK  194  A    between atoms: _484  and  _485
REMARK  195  A    between atoms: _488  and  _490
REMARK  196  A    between atoms: _490  and  _491
REMARK  197  A    between atoms: _490  and  _493
REMARK  198  A    between atoms: _493  and  _494
REMARK  199  A    between atoms: _496  and  _498
REMARK  200  A    between atoms: _498  and  _499
REMARK  201  A    between atoms: _501  and  _503
REMARK  202  A    between atoms: _503  and  _504
REMARK  203  A    between atoms: _503  and  _506
REMARK  204  A    between atoms: _506  and  _507
REMARK  205  A    between atoms: _510  and  _512
REMARK  206  A    between atoms: _512  and  _513
REMARK  207  A    between atoms: _515  and  _517
REMARK  208  A    between atoms: _517  and  _518
REMARK  209  A    between atoms: _517  and  _520
REMARK  210  A    between atoms: _520  and  _521
REMARK  211  A    between atoms: _526  and  _528
REMARK  212  A    between atoms: _528  and  _529
REMARK  213  A    between atoms: _528  and  _531
REMARK  214  A    between atoms: _531  and  _532
REMARK  215  A    between atoms: _532  and  _533
REMARK  216  A    between atoms: _540  and  _541
REMARK  217  A    between atoms: _541  and  _557
REMARK  218  A    between atoms: _542  and  _544
REMARK  219  A    between atoms: _544  and  _545
REMARK  220  A    between atoms: _545  and  _546
REMARK  221  A    between atoms: _550  and  _552
REMARK  222  A    between atoms: _552  and  _553
REMARK  223  A    between atoms: _552  and  _560
REMARK  224  A    between atoms: _553  and  _554
REMARK  225  A    between atoms: _554  and  _555
REMARK  226  A    between atoms: _555  and  _556
REMARK  227  A    between atoms: _556  and  _557
REMARK  228  A    between atoms: _562  and  _564
REMARK  229  A    between atoms: _564  and  _565
REMARK  230  A    between atoms: _564  and  _567
REMARK  231  A    between atoms: _567  and  _568
REMARK  232  A    between atoms: _571  and  _573
REMARK  233  A    between atoms: _573  and  _574
REMARK  234  A    between atoms: _576  and  _578
REMARK  235  A    between atoms: _578  and  _579
REMARK  236  A    between atoms: _582  and  _584
REMARK  237  A    between atoms: _584  and  _585
REMARK  238  A    between atoms: _584  and  _587
REMARK  239  A    between atoms: _587  and  _588
REMARK  240  A    between atoms: _593  and  _594
REMARK                            x       y       z     vdW  Elec       q    Type
REMARK                         _______ _______ _______ _____ _____    ______ ____
ROOT
ATOM      1  C   ASP A   1      32.877  22.002  15.795  0.00  0.00    +0.239 C 
ATOM      2  N   GLY A   2      33.757  21.540  16.682  0.00  0.00    -0.296 N 
ATOM      3  H   GLY A   2      34.760  21.804  16.602  0.00  0.00    +0.150 HD
ATOM      4  O   ASP A   1      31.701  21.621  15.758  0.00  0.00    -0.274 OA
ENDROOT
BRANCH   1   5
ATOM      5  CA  ASP A   1      33.375  23.051  14.814  0.00  0.00    +0.156 C 
BRANCH   5   6
ATOM      6  N   ASP A   1      32.600  22.999  13.583  0.00  0.00    -0.238 NA
ATOM      7  H   ASP A   1      31.563  22.953  13.641  0.00  0.00    +0.142 HD
ENDBRANCH   5   6
BRANCH   5   8
ATOM      8  CB  ASP A   1      33.278  24.447  15.451  0.00  0.00    +0.140 C 
BRANCH   8   9
ATOM      9  CG  ASP A   1      34.435  24.725  16.412  0.00  0.00    +0.367 C 
ATOM     10  OD2 ASP A   1      34.365  25.685  17.193  0.00  0.00    -0.246 OA
ATOM     11  OD1 ASP A   1      35.419  23.965  16.390  0.00  0.00    -0.246 OA
ENDBRANCH   8   9
ENDBRANCH   5   8
ENDBRANCH   1   5
BRANCH   2  12
ATOM     12  CA  GLY A   2      33.317  20.658  17.773  0.00  0.00    +0.176 C 
BRANCH  12  13
ATOM     13  C   GLY A   2      32.404  19.539  17.289  0.00  0.00    +0.243 C 
ATOM     14  N   ALA A   3      31.364  19.229  18.052  0.00  0.00    -0.298 N 
ATOM     15  H   ALA A   3      31.142  19.796  18.895  0.00  0.00    +0.150 HD
ATOM     16  O   GLY A   2      32.635  18.954  16.226  0.00  0.00    -0.273 OA
BRANCH  14  17
ATOM     17  CA  ALA A   3      30.534  18.082  17.694  0.00  0.00    +0.137 C 
ATOM     18  CB  ALA A   3      29.731  17.587  18.880  0.00  0.00    +0.030 C 
BRANCH  17  19
ATOM     19  C   ALA A   3      29.635  18.369  16.481  0.00  0.00    +0.227 C 
ATOM     20  O   ALA A   3      29.124  17.411  15.870  0.00  0.00    -0.286 OA
ENDBRANCH  17  19
ENDBRANCH  14  17
ENDBRANCH  12  13
ENDBRANCH   2  12
TORSDOF 8
REMARK  Name = ../refined-set-2016/3sym/3sym_pocket.pdb
REMARK  240 active torsions:
REMARK  status: ('A' for Active; 'I' for Inactive)
REMARK    1  A    between atoms: _1  and  _3
REMARK    2  A    between atoms: _3  and  _4
REMARK    3  A    between atoms: _3  and  _6
REMARK    4  A    between atoms: _6  and  _7
REMARK    5  A    between atoms: _12  and  _13
REMARK    6  A    between atoms: _15  and  _17
REMARK    7  A    between atoms: _17  and  _18
REMARK    8  A    between atoms: _17  and  _20
REMARK    9  A    between atoms: _20  and  _21
REMARK   10  A    between atoms: _21  and  _22
REMARK   11  A    between atoms: _25  and  _27
REMARK   12  A    between atoms: _27  and  _28
REMARK   13  A    between atoms: _27  and  _30
REMARK   14  A    between atoms: _30  and  _31
REMARK   15  A    between atoms: _36  and  _37
REMARK   16  A    between atoms: _39  and  _41
REMARK   17  A    between atoms: _41  and  _42
REMARK   18  A    between atoms: _44  and  _46
REMARK   19  A    between atoms: _46  and  _47
REMARK   20  A    between atoms: _46  and  _49
REMARK   21  A    between atoms: _49  and  _50
REMARK   22  A    between atoms: _55  and  _57
REMARK   23  A    between atoms: _57  and  _58
REMARK   24  A    between atoms: _60  and  _62
REMARK   25  A    between atoms: _62  and  _63
REMARK   26  A    between atoms: _65  and  _67
REMARK   27  A    between atoms: _67  and  _68
REMARK   28  A    between atoms: _67  and  _70
REMARK   29  A    between atoms: _70  and  _71
REMARK   30  A    between atoms: _74  and  _76
REMARK   31  A    between atoms: _76  and  _77
REMARK   32  A    between atoms: _79  and  _81
REMARK   33  A    between atoms: _81  and  _82
REMARK   34  A    between atoms: _81  and  _84
REMARK   35  A    between atoms: _85  and  _86
REMARK   36  A    between atoms: _86  and  _87
REMARK   37  A    between atoms: _96  and  _98
REMARK   38  A    between atoms: _98  and  _99
REMARK   39  A    between atoms: _98  and  _101
REMARK   40  A    between atoms: _101  and  _102
REMARK   41  A    between atoms: _105  and  _107
REMARK   42  A    between atoms: _107  and  _108
REMARK   43  A    between atoms: _111  and  _113
REMARK   44  A    between atoms: _113  and  _114
REMARK   45  A    between atoms: _113  and  _116
REMARK   46  A    between atoms: _116  and  _117
REMARK   47  A    between atoms: _123  and  _125
REMARK   48  A    between atoms: _125  and  _126
REMARK   49  A    between atoms: _125  and  _128
REMARK   50  A    between atoms: _128  and  _129
REMARK   51  A    between atoms: _134  and  _136
REMARK   52  A    between atoms: _136  and  _137
REMARK   53  A    between atoms: _136  and  _139
REMARK   54  A    between atoms: _139  and  _140
REMARK   55  A    between atoms: _143  and  _145
REMARK   56  A    between atoms: _145  and  _146
REMARK   57  A    between atoms: _145  and  _148
REMARK   58  A    between atoms: _148  and  _149
REMARK   59  A    between atoms: _154  and  _156
REMARK   60  A    between atoms: _156  and  _157
REMARK   61  A    between atoms: _156  and  _159
REMARK   62  A    between atoms: _159  and  _160
REMARK   63  A    between atoms: _166  and  _168
REMARK   64  A    between atoms: _168  and  _169
REMARK   65  A    between atoms: _168  and  _171
REMARK   66  A    between atoms: _171  and  _172
REMARK   67  A    between atoms: _178  and  _180
REMARK   68  A    between atoms: _180  and  _181
REMARK   69  A    between atoms: _180  and  _183
REMARK   70  A    between atoms: _183  and  _184
REMARK   71  A    between atoms: _184  and  _185
REMARK   72  A    between atoms: _185  and  _186
REMARK   73  A    between atoms: _195  and  _197
REMARK   74  A    between atoms: _197  and  _198
REMARK   75  A    between atoms: _197  and  _200
REMARK   76  A    between atoms: _200  and  _201
REMARK   77  A    between atoms: _206  and  _208
REMARK   78  A    between atoms: _208  and  _209
REMARK   79  A    between atoms: _208  and  _211
REMARK   80  A    between atoms: _211  and  _212
REMARK   81  A    between atoms: _215  and  _217
REMARK   82  A    between atoms: _217  and  _218
REMARK   83  A    between atoms: _217  and  _220
REMARK   84  A    between atoms: _220  and  _221
REMARK   85  A    between atoms: _224  and  _226
REMARK   86  A    between atoms: _226  and  _227
REMARK   87  A    between atoms: _226  and  _229
REMARK   88  A    between atoms: _229  and  _230
REMARK   89  A    between atoms: _235  and  _237
REMARK   90  A    between atoms: _237  and  _238
REMARK   91  A    between atoms: _237  and  _240
REMARK   92  A    between atoms: _240  and  _241
REMARK   93  A    between atoms: _244  and  _246
REMARK   94  A    between atoms: _246  and  _247
REMARK   95  A    between atoms: _246  and  _249
REMARK   96  A    between atoms: _249  and  _250
REMARK   97  A    between atoms: _255  and  _257
REMARK   98  A    between atoms: _257  and  _258
REMARK   99  A    between atoms: _257  and  _260
REMARK  100  A    between atoms: _260  and  _261
REMARK  101  A    between atoms: _266  and  _268
REMARK  102  A    between atoms: _268  and  _269
REMARK  103  A    between atoms: _268  and  _271
REMARK  104  A    between atoms: _271  and  _272
REMARK  105  A    between atoms: _275  and  _277
REMARK  106  A    between atoms: _277  and  _278
REMARK  107  A    between atoms: _277  and  _280
REMARK  108  A    between atoms: _283  and  _285
REMARK  109  A    between atoms: _285  and  _286
REMARK  110  A    between atoms: _285  and  _288
REMARK  111  A    between atoms: _288  and  _289
REMARK  112  A    between atoms: _292  and  _294
REMARK  113  A    between atoms: _294  and  _295
REMARK  114  A    between atoms: _298  and  _300
REMARK  115  A    between atoms: _300  and  _301
REMARK  116  A    between atoms: _300  and  _303
REMARK  117  A    between atoms: _303  and  _304
REMARK  118  A    between atoms: _307  and  _309
REMARK  119  A    between atoms: _309  and  _310
REMARK  120  A    between atoms: _309  and  _312
REMARK  121  A    between atoms: _312  and  _313
REMARK  122  A    between atoms: _318  and  _320
REMARK  123  A    between atoms: _320  and  _321
REMARK  124  A    between atoms: _323  and  _325
REMARK  125  A    between atoms: _325  and  _326
REMARK  126  A    between atoms: _325  and  _328
REMARK  127  A    between atoms: _331  and  _333
REMARK  128  A    between atoms: _333  and  _334
REMARK  129  A    between atoms: _337  and  _339
REMARK  130  A    between atoms: _339  and  _340
REMARK  131  A    between atoms: _339  and  _342
REMARK  132  A    between atoms: _342  and  _343
REMARK  133  A    between atoms: _348  and  _350
REMARK  134  A    between atoms: _350  and  _351
REMARK  135  A    between atoms: _350  and  _353
REMARK  136  A    between atoms: _353  and  _354
REMARK  137  A    between atoms: _354  and  _355
REMARK  138  A    between atoms: _355  and  _356
REMARK  139  A    between atoms: _356  and  _357
REMARK  140  A    between atoms: _361  and  _363
REMARK  141  A    between atoms: _363  and  _364
REMARK  142  A    between atoms: _363  and  _366
REMARK  143  A    between atoms: _366  and  _367
REMARK  144  A    between atoms: _370  and  _372
REMARK  145  A    between atoms: _372  and  _373
REMARK  146  A    between atoms: _372  and  _375
REMARK  147  A    between atoms: _375  and  _376
REMARK  148  A    between atoms: _381  and  _383
REMARK  149  A    between atoms: _383  and  _384
REMARK  150  A    between atoms: _386  and  _388
REMARK  151  A    between atoms: _388  and  _389
REMARK  152  A    between atoms: _388  and  _391
REMARK  153  A    between atoms: _391  and  _392
REMARK  154  A    between atoms: _392  and  _393
REMARK  155  A    between atoms: _393  and  _394
REMARK  156  A    between atoms: _394  and  _395
REMARK  157  A    between atoms: _399  and  _401
REMARK  158  A    between atoms: _401  and  _402
REMARK  159  A    between atoms: _401  and  _404
REMARK  160  A    between atoms: _404  and  _405
REMARK  161  A    between atoms: _405  and  _406
REMARK  162  A    between atoms: _406  and  _407
REMARK  163  A    between atoms: _416  and  _418
REMARK  164  A    between atoms: _418  and  _419
REMARK  165  A    between atoms: _418  and  _421
REMARK  166  A    between atoms: _421  and  _422
REMARK  167  A    between atoms: _427  and  _428
REMARK  168  A    between atoms: _430  and  _432
REMARK  169  A    between atoms: _432  and  _433
REMARK  170  A    between atoms: _432  and  _435
REMARK  171  A    between atoms: _435  and  _436
REMARK  172  A    between atoms: _436  and  _437
REMARK  173  A    between atoms: _437  and  _438
REMARK  174  A    between atoms: _438  and  _439
REMARK  175  A    between atoms: _443  and  _445
REMARK  176  A    between atoms: _445  and  _446
REMARK  177  A    between atoms: _445  and  _448
REMARK  178  A    between atoms: _448  and  _449
REMARK  179  A    between atoms: _449  and  _450
REMARK  180  A    between atoms: _455  and  _457
REMARK  181  A    between atoms: _457  and  _458
REMARK  182  A    between atoms: _457  and  _460
REMARK  183  A    between atoms: _460  and  _461
REMARK  184  A    between atoms: _463  and  _465
REMARK  185  A    between atoms: _465  and  _466
REMARK  186  A    between atoms: _465  and  _468
REMARK  187  A    between atoms: _468  and  _469
REMARK  188  A    between atoms: _472  and  _474
REMARK  189  A    between atoms: _474  and  _475
REMARK  190  A    between atoms: _474  and  _477
REMARK  191  A    between atoms: _477  and  _478
REMARK  192  A    between atoms: _478  and  _479
REMARK  193  A    between atoms: _482  and  _484
REMARK  194  A    between atoms: _484  and  _485
REMARK  195  A    between atoms: _488  and  _490
REMARK  196  A    between atoms: _490  and  _491
REMARK  197  A    between atoms: _490  and  _493
REMARK  198  A    between atoms: _493  and  _494
REMARK  199  A    between atoms: _496  and  _498
REMARK  200  A    between atoms: _498  and  _499
REMARK  201  A    between atoms: _501  and  _503
REMARK  202  A    between atoms: _503  and  _504
REMARK  203  A    between atoms: _503  and  _506
REMARK  204  A    between atoms: _506  and  _507
REMARK  205  A    between atoms: _510  and  _512
REMARK  206  A    between atoms: _512  and  _513
REMARK  207  A    between atoms: _515  and  _517
REMARK  208  A    between atoms: _517  and  _518
REMARK  209  A    between atoms: _517  and  _520
REMARK  210  A    between atoms: _520  and  _521
REMARK  211  A    between atoms: _526  and  _528
REMARK  212  A    between atoms: _528  and  _529
REMARK  213  A    between atoms: _528  and  _531
REMARK  214  A    between atoms: _531  and  _532
REMARK  215  A    between atoms: _532  and  _533
REMARK  216  A    between atoms: _540  and  _541
REMARK  217  A    between atoms: _541  and  _557
REMARK  218  A    between atoms: _542  and  _544
REMARK  219  A    between atoms: _544  and  _545
REMARK  220  A    between atoms: _545  and  _546
REMARK  221  A    between atoms: _550  and  _552
REMARK  222  A    between atoms: _552  and  _553
REMARK  223  A    between atoms: _552  and  _560
REMARK  224  A    between atoms: _553  and  _554
REMARK  225  A    between atoms: _554  and  _555
REMARK  226  A    between atoms: _555  and  _556
REMARK  227  A    between atoms: _556  and  _557
REMARK  228  A    between atoms: _562  and  _564
REMARK  229  A    between atoms: _564  and  _565
REMARK  230  A    between atoms: _564  and  _567
REMARK  231  A    between atoms: _567  and  _568
REMARK  232  A    between atoms: _571  and  _573
REMARK  233  A    between atoms: _573  and  _574
REMARK  234  A    between atoms: _576  and  _578
REMARK  235  A    between atoms: _578  and  _579
REMARK  236  A    between atoms: _582  and  _584
REMARK  237  A    between atoms: _584  and  _585
REMARK  238  A    between atoms: _584  and  _587
REMARK  239  A    between atoms: _587  and  _588
REMARK  240  A    between atoms: _593  and  _594
REMARK                            x       y       z     vdW  Elec       q    Type
REMARK                         _______ _______ _______ _____ _____    ______ ____
ROOT
ATOM      1  CG  TYR A   1      34.425   7.581  28.924  0.00  0.00    -0.020 A 
ATOM      2  CD2 TYR A   1      35.566   8.195  29.440  0.00  0.00    -0.001 A 
ATOM      3  CE2 TYR A   1      35.816   9.534  29.206  0.00  0.00    +0.036 A 
ATOM      4  CZ  TYR A   1      34.932  10.270  28.449  0.00  0.00    +0.134 A 
ATOM      5  CE1 TYR A   1      33.785   9.700  27.936  0.00  0.00    +0.036 A 
ATOM      6  CD1 TYR A   1      33.536   8.363  28.167  0.00  0.00    -0.001 A 
ENDROOT
BRANCH   4   7
ATOM      7  OH  TYR A   1      35.197  11.598  28.239  0.00  0.00    -0.506 OA
ATOM      8  HH  TYR A   1      35.261  11.771  27.266  0.00  0.00    +0.292 HD
ENDBRANCH   4   7
BRANCH   1   9
ATOM      9  CB  TYR A   1      34.137   6.111  29.211  0.00  0.00    +0.051 C 
BRANCH   9  10
ATOM     10  CA  TYR A   1      34.726   5.103  28.211  0.00  0.00    +0.137 C 
BRANCH  10  11
ATOM     11  N   TYR A   1      33.830   4.900  27.071  0.00  0.00    -0.239 NA
ATOM     12  H   TYR A   1      32.951   5.452  27.010  0.00  0.00    +0.142 HD
ENDBRANCH  10  11
BRANCH  10  13
ATOM     13  C   TYR A   1      34.954   3.773  28.920  0.00  0.00    +0.224 C 
ATOM     14  O   TYR A   1      36.091   3.373  29.162  0.00  0.00    -0.287 OA
ENDBRANCH  10  13
ENDBRANCH   9  10
ENDBRANCH   1   9
TORSDOF 5
REMARK  Name = ../refined-set-2016/3sym/3sym_pocket.pdb
REMARK  240 active torsions:
REMARK  status: ('A' for Active; 'I' for Inactive)
REMARK    1  A    between atoms: _1  and  _3
REMARK    2  A    between atoms: _3  and  _4
REMARK    3  A    between atoms: _3  and  _6
REMARK    4  A    between atoms: _6  and  _7
REMARK    5  A    between atoms: _12  and  _13
REMARK    6  A    between atoms: _15  and  _17
REMARK    7  A    between atoms: _17  and  _18
REMARK    8  A    between atoms: _17  and  _20
REMARK    9  A    between atoms: _20  and  _21
REMARK   10  A    between atoms: _21  and  _22
REMARK   11  A    between atoms: _25  and  _27
REMARK   12  A    between atoms: _27  and  _28
REMARK   13  A    between atoms: _27  and  _30
REMARK   14  A    between atoms: _30  and  _31
REMARK   15  A    between atoms: _36  and  _37
REMARK   16  A    between atoms: _39  and  _41
REMARK   17  A    between atoms: _41  and  _42
REMARK   18  A    between atoms: _44  and  _46
REMARK   19  A    between atoms: _46  and  _47
REMARK   20  A    between atoms: _46  and  _49
REMARK   21  A    between atoms: _49  and  _50
REMARK   22  A    between atoms: _55  and  _57
REMARK   23  A    between atoms: _57  and  _58
REMARK   24  A    between atoms: _60  and  _62
REMARK   25  A    between atoms: _62  and  _63
REMARK   26  A    between atoms: _65  and  _67
REMARK   27  A    between atoms: _67  and  _68
REMARK   28  A    between atoms: _67  and  _70
REMARK   29  A    between atoms: _70  and  _71
REMARK   30  A    between atoms: _74  and  _76
REMARK   31  A    between atoms: _76  and  _77
REMARK   32  A    between atoms: _79  and  _81
REMARK   33  A    between atoms: _81  and  _82
REMARK   34  A    between atoms: _81  and  _84
REMARK   35  A    between atoms: _85  and  _86
REMARK   36  A    between atoms: _86  and  _87
REMARK   37  A    between atoms: _96  and  _98
REMARK   38  A    between atoms: _98  and  _99
REMARK   39  A    between atoms: _98  and  _101
REMARK   40  A    between atoms: _101  and  _102
REMARK   41  A    between atoms: _105  and  _107
REMARK   42  A    between atoms: _107  and  _108
REMARK   43  A    between atoms: _111  and  _113
REMARK   44  A    between atoms: _113  and  _114
REMARK   45  A    between atoms: _113  and  _116
REMARK   46  A    between atoms: _116  and  _117
REMARK   47  A    between atoms: _123  and  _125
REMARK   48  A    between atoms: _125  and  _126
REMARK   49  A    between atoms: _125  and  _128
REMARK   50  A    between atoms: _128  and  _129
REMARK   51  A    between atoms: _134  and  _136
REMARK   52  A    between atoms: _136  and  _137
REMARK   53  A    between atoms: _136  and  _139
REMARK   54  A    between atoms: _139  and  _140
REMARK   55  A    between atoms: _143  and  _145
REMARK   56  A    between atoms: _145  and  _146
REMARK   57  A    between atoms: _145  and  _148
REMARK   58  A    between atoms: _148  and  _149
REMARK   59  A    between atoms: _154  and  _156
REMARK   60  A    between atoms: _156  and  _157
REMARK   61  A    between atoms: _156  and  _159
REMARK   62  A    between atoms: _159  and  _160
REMARK   63  A    between atoms: _166  and  _168
REMARK   64  A    between atoms: _168  and  _169
REMARK   65  A    between atoms: _168  and  _171
REMARK   66  A    between atoms: _171  and  _172
REMARK   67  A    between atoms: _178  and  _180
REMARK   68  A    between atoms: _180  and  _181
REMARK   69  A    between atoms: _180  and  _183
REMARK   70  A    between atoms: _183  and  _184
REMARK   71  A    between atoms: _184  and  _185
REMARK   72  A    between atoms: _185  and  _186
REMARK   73  A    between atoms: _195  and  _197
REMARK   74  A    between atoms: _197  and  _198
REMARK   75  A    between atoms: _197  and  _200
REMARK   76  A    between atoms: _200  and  _201
REMARK   77  A    between atoms: _206  and  _208
REMARK   78  A    between atoms: _208  and  _209
REMARK   79  A    between atoms: _208  and  _211
REMARK   80  A    between atoms: _211  and  _212
REMARK   81  A    between atoms: _215  and  _217
REMARK   82  A    between atoms: _217  and  _218
REMARK   83  A    between atoms: _217  and  _220
REMARK   84  A    between atoms: _220  and  _221
REMARK   85  A    between atoms: _224  and  _226
REMARK   86  A    between atoms: _226  and  _227
REMARK   87  A    between atoms: _226  and  _229
REMARK   88  A    between atoms: _229  and  _230
REMARK   89  A    between atoms: _235  and  _237
REMARK   90  A    between atoms: _237  and  _238
REMARK   91  A    between atoms: _237  and  _240
REMARK   92  A    between atoms: _240  and  _241
REMARK   93  A    between atoms: _244  and  _246
REMARK   94  A    between atoms: _246  and  _247
REMARK   95  A    between atoms: _246  and  _249
REMARK   96  A    between atoms: _249  and  _250
REMARK   97  A    between atoms: _255  and  _257
REMARK   98  A    between atoms: _257  and  _258
REMARK   99  A    between atoms: _257  and  _260
REMARK  100  A    between atoms: _260  and  _261
REMARK  101  A    between atoms: _266  and  _268
REMARK  102  A    between atoms: _268  and  _269
REMARK  103  A    between atoms: _268  and  _271
REMARK  104  A    between atoms: _271  and  _272
REMARK  105  A    between atoms: _275  and  _277
REMARK  106  A    between atoms: _277  and  _278
REMARK  107  A    between atoms: _277  and  _280
REMARK  108  A    between atoms: _283  and  _285
REMARK  109  A    between atoms: _285  and  _286
REMARK  110  A    between atoms: _285  and  _288
REMARK  111  A    between atoms: _288  and  _289
REMARK  112  A    between atoms: _292  and  _294
REMARK  113  A    between atoms: _294  and  _295
REMARK  114  A    between atoms: _298  and  _300
REMARK  115  A    between atoms: _300  and  _301
REMARK  116  A    between atoms: _300  and  _303
REMARK  117  A    between atoms: _303  and  _304
REMARK  118  A    between atoms: _307  and  _309
REMARK  119  A    between atoms: _309  and  _310
REMARK  120  A    between atoms: _309  and  _312
REMARK  121  A    between atoms: _312  and  _313
REMARK  122  A    between atoms: _318  and  _320
REMARK  123  A    between atoms: _320  and  _321
REMARK  124  A    between atoms: _323  and  _325
REMARK  125  A    between atoms: _325  and  _326
REMARK  126  A    between atoms: _325  and  _328
REMARK  127  A    between atoms: _331  and  _333
REMARK  128  A    between atoms: _333  and  _334
REMARK  129  A    between atoms: _337  and  _339
REMARK  130  A    between atoms: _339  and  _340
REMARK  131  A    between atoms: _339  and  _342
REMARK  132  A    between atoms: _342  and  _343
REMARK  133  A    between atoms: _348  and  _350
REMARK  134  A    between atoms: _350  and  _351
REMARK  135  A    between atoms: _350  and  _353
REMARK  136  A    between atoms: _353  and  _354
REMARK  137  A    between atoms: _354  and  _355
REMARK  138  A    between atoms: _355  and  _356
REMARK  139  A    between atoms: _356  and  _357
REMARK  140  A    between atoms: _361  and  _363
REMARK  141  A    between atoms: _363  and  _364
REMARK  142  A    between atoms: _363  and  _366
REMARK  143  A    between atoms: _366  and  _367
REMARK  144  A    between atoms: _370  and  _372
REMARK  145  A    between atoms: _372  and  _373
REMARK  146  A    between atoms: _372  and  _375
REMARK  147  A    between atoms: _375  and  _376
REMARK  148  A    between atoms: _381  and  _383
REMARK  149  A    between atoms: _383  and  _384
REMARK  150  A    between atoms: _386  and  _388
REMARK  151  A    between atoms: _388  and  _389
REMARK  152  A    between atoms: _388  and  _391
REMARK  153  A    between atoms: _391  and  _392
REMARK  154  A    between atoms: _392  and  _393
REMARK  155  A    between atoms: _393  and  _394
REMARK  156  A    between atoms: _394  and  _395
REMARK  157  A    between atoms: _399  and  _401
REMARK  158  A    between atoms: _401  and  _402
REMARK  159  A    between atoms: _401  and  _404
REMARK  160  A    between atoms: _404  and  _405
REMARK  161  A    between atoms: _405  and  _406
REMARK  162  A    between atoms: _406  and  _407
REMARK  163  A    between atoms: _416  and  _418
REMARK  164  A    between atoms: _418  and  _419
REMARK  165  A    between atoms: _418  and  _421
REMARK  166  A    between atoms: _421  and  _422
REMARK  167  A    between atoms: _427  and  _428
REMARK  168  A    between atoms: _430  and  _432
REMARK  169  A    between atoms: _432  and  _433
REMARK  170  A    between atoms: _432  and  _435
REMARK  171  A    between atoms: _435  and  _436
REMARK  172  A    between atoms: _436  and  _437
REMARK  173  A    between atoms: _437  and  _438
REMARK  174  A    between atoms: _438  and  _439
REMARK  175  A    between atoms: _443  and  _445
REMARK  176  A    between atoms: _445  and  _446
REMARK  177  A    between atoms: _445  and  _448
REMARK  178  A    between atoms: _448  and  _449
REMARK  179  A    between atoms: _449  and  _450
REMARK  180  A    between atoms: _455  and  _457
REMARK  181  A    between atoms: _457  and  _458
REMARK  182  A    between atoms: _457  and  _460
REMARK  183  A    between atoms: _460  and  _461
REMARK  184  A    between atoms: _463  and  _465
REMARK  185  A    between atoms: _465  and  _466
REMARK  186  A    between atoms: _465  and  _468
REMARK  187  A    between atoms: _468  and  _469
REMARK  188  A    between atoms: _472  and  _474
REMARK  189  A    between atoms: _474  and  _475
REMARK  190  A    between atoms: _474  and  _477
REMARK  191  A    between atoms: _477  and  _478
REMARK  192  A    between atoms: _478  and  _479
REMARK  193  A    between atoms: _482  and  _484
REMARK  194  A    between atoms: _484  and  _485
REMARK  195  A    between atoms: _488  and  _490
REMARK  196  A    between atoms: _490  and  _491
REMARK  197  A    between atoms: _490  and  _493
REMARK  198  A    between atoms: _493  and  _494
REMARK  199  A    between atoms: _496  and  _498
REMARK  200  A    between atoms: _498  and  _499
REMARK  201  A    between atoms: _501  and  _503
REMARK  202  A    between atoms: _503  and  _504
REMARK  203  A    between atoms: _503  and  _506
REMARK  204  A    between atoms: _506  and  _507
REMARK  205  A    between atoms: _510  and  _512
REMARK  206  A    between atoms: _512  and  _513
REMARK  207  A    between atoms: _515  and  _517
REMARK  208  A    between atoms: _517  and  _518
REMARK  209  A    between atoms: _517  and  _520
REMARK  210  A    between atoms: _520  and  _521
REMARK  211  A    between atoms: _526  and  _528
REMARK  212  A    between atoms: _528  and  _529
REMARK  213  A    between atoms: _528  and  _531
REMARK  214  A    between atoms: _531  and  _532
REMARK  215  A    between atoms: _532  and  _533
REMARK  216  A    between atoms: _540  and  _541
REMARK  217  A    between atoms: _541  and  _557
REMARK  218  A    between atoms: _542  and  _544
REMARK  219  A    between atoms: _544  and  _545
REMARK  220  A    between atoms: _545  and  _546
REMARK  221  A    between atoms: _550  and  _552
REMARK  222  A    between atoms: _552  and  _553
REMARK  223  A    between atoms: _552  and  _560
REMARK  224  A    between atoms: _553  and  _554
REMARK  225  A    between atoms: _554  and  _555
REMARK  226  A    between atoms: _555  and  _556
REMARK  227  A    between atoms: _556  and  _557
REMARK  228  A    between atoms: _562  and  _564
REMARK  229  A    between atoms: _564  and  _565
REMARK  230  A    between atoms: _564  and  _567
REMARK  231  A    between atoms: _567  and  _568
REMARK  232  A    between atoms: _571  and  _573
REMARK  233  A    between atoms: _573  and  _574
REMARK  234  A    between atoms: _576  and  _578
REMARK  235  A    between atoms: _578  and  _579
REMARK  236  A    between atoms: _582  and  _584
REMARK  237  A    between atoms: _584  and  _585
REMARK  238  A    between atoms: _584  and  _587
REMARK  239  A    between atoms: _587  and  _588
REMARK  240  A    between atoms: _593  and  _594
REMARK                            x       y       z     vdW  Elec       q    Type
REMARK                         _______ _______ _______ _____ _____    ______ ____
ROOT
ATOM      1  O   HOH     1      33.635  12.725  26.512  0.00  0.00    +0.000 OA
ENDROOT
TORSDOF 0
REMARK  Name = ../refined-set-2016/3sym/3sym_pocket.pdb
REMARK  240 active torsions:
REMARK  status: ('A' for Active; 'I' for Inactive)
REMARK    1  A    between atoms: _1  and  _3
REMARK    2  A    between atoms: _3  and  _4
REMARK    3  A    between atoms: _3  and  _6
REMARK    4  A    between atoms: _6  and  _7
REMARK    5  A    between atoms: _12  and  _13
REMARK    6  A    between atoms: _15  and  _17
REMARK    7  A    between atoms: _17  and  _18
REMARK    8  A    between atoms: _17  and  _20
REMARK    9  A    between atoms: _20  and  _21
REMARK   10  A    between atoms: _21  and  _22
REMARK   11  A    between atoms: _25  and  _27
REMARK   12  A    between atoms: _27  and  _28
REMARK   13  A    between atoms: _27  and  _30
REMARK   14  A    between atoms: _30  and  _31
REMARK   15  A    between atoms: _36  and  _37
REMARK   16  A    between atoms: _39  and  _41
REMARK   17  A    between atoms: _41  and  _42
REMARK   18  A    between atoms: _44  and  _46
REMARK   19  A    between atoms: _46  and  _47
REMARK   20  A    between atoms: _46  and  _49
REMARK   21  A    between atoms: _49  and  _50
REMARK   22  A    between atoms: _55  and  _57
REMARK   23  A    between atoms: _57  and  _58
REMARK   24  A    between atoms: _60  and  _62
REMARK   25  A    between atoms: _62  and  _63
REMARK   26  A    between atoms: _65  and  _67
REMARK   27  A    between atoms: _67  and  _68
REMARK   28  A    between atoms: _67  and  _70
REMARK   29  A    between atoms: _70  and  _71
REMARK   30  A    between atoms: _74  and  _76
REMARK   31  A    between atoms: _76  and  _77
REMARK   32  A    between atoms: _79  and  _81
REMARK   33  A    between atoms: _81  and  _82
REMARK   34  A    between atoms: _81  and  _84
REMARK   35  A    between atoms: _85  and  _86
REMARK   36  A    between atoms: _86  and  _87
REMARK   37  A    between atoms: _96  and  _98
REMARK   38  A    between atoms: _98  and  _99
REMARK   39  A    between atoms: _98  and  _101
REMARK   40  A    between atoms: _101  and  _102
REMARK   41  A    between atoms: _105  and  _107
REMARK   42  A    between atoms: _107  and  _108
REMARK   43  A    between atoms: _111  and  _113
REMARK   44  A    between atoms: _113  and  _114
REMARK   45  A    between atoms: _113  and  _116
REMARK   46  A    between atoms: _116  and  _117
REMARK   47  A    between atoms: _123  and  _125
REMARK   48  A    between atoms: _125  and  _126
REMARK   49  A    between atoms: _125  and  _128
REMARK   50  A    between atoms: _128  and  _129
REMARK   51  A    between atoms: _134  and  _136
REMARK   52  A    between atoms: _136  and  _137
REMARK   53  A    between atoms: _136  and  _139
REMARK   54  A    between atoms: _139  and  _140
REMARK   55  A    between atoms: _143  and  _145
REMARK   56  A    between atoms: _145  and  _146
REMARK   57  A    between atoms: _145  and  _148
REMARK   58  A    between atoms: _148  and  _149
REMARK   59  A    between atoms: _154  and  _156
REMARK   60  A    between atoms: _156  and  _157
REMARK   61  A    between atoms: _156  and  _159
REMARK   62  A    between atoms: _159  and  _160
REMARK   63  A    between atoms: _166  and  _168
REMARK   64  A    between atoms: _168  and  _169
REMARK   65  A    between atoms: _168  and  _171
REMARK   66  A    between atoms: _171  and  _172
REMARK   67  A    between atoms: _178  and  _180
REMARK   68  A    between atoms: _180  and  _181
REMARK   69  A    between atoms: _180  and  _183
REMARK   70  A    between atoms: _183  and  _184
REMARK   71  A    between atoms: _184  and  _185
REMARK   72  A    between atoms: _185  and  _186
REMARK   73  A    between atoms: _195  and  _197
REMARK   74  A    between atoms: _197  and  _198
REMARK   75  A    between atoms: _197  and  _200
REMARK   76  A    between atoms: _200  and  _201
REMARK   77  A    between atoms: _206  and  _208
REMARK   78  A    between atoms: _208  and  _209
REMARK   79  A    between atoms: _208  and  _211
REMARK   80  A    between atoms: _211  and  _212
REMARK   81  A    between atoms: _215  and  _217
REMARK   82  A    between atoms: _217  and  _218
REMARK   83  A    between atoms: _217  and  _220
REMARK   84  A    between atoms: _220  and  _221
REMARK   85  A    between atoms: _224  and  _226
REMARK   86  A    between atoms: _226  and  _227
REMARK   87  A    between atoms: _226  and  _229
REMARK   88  A    between atoms: _229  and  _230
REMARK   89  A    between atoms: _235  and  _237
REMARK   90  A    between atoms: _237  and  _238
REMARK   91  A    between atoms: _237  and  _240
REMARK   92  A    between atoms: _240  and  _241
REMARK   93  A    between atoms: _244  and  _246
REMARK   94  A    between atoms: _246  and  _247
REMARK   95  A    between atoms: _246  and  _249
REMARK   96  A    between atoms: _249  and  _250
REMARK   97  A    between atoms: _255  and  _257
REMARK   98  A    between atoms: _257  and  _258
REMARK   99  A    between atoms: _257  and  _260
REMARK  100  A    between atoms: _260  and  _261
REMARK  101  A    between atoms: _266  and  _268
REMARK  102  A    between atoms: _268  and  _269
REMARK  103  A    between atoms: _268  and  _271
REMARK  104  A    between atoms: _271  and  _272
REMARK  105  A    between atoms: _275  and  _277
REMARK  106  A    between atoms: _277  and  _278
REMARK  107  A    between atoms: _277  and  _280
REMARK  108  A    between atoms: _283  and  _285
REMARK  109  A    between atoms: _285  and  _286
REMARK  110  A    between atoms: _285  and  _288
REMARK  111  A    between atoms: _288  and  _289
REMARK  112  A    between atoms: _292  and  _294
REMARK  113  A    between atoms: _294  and  _295
REMARK  114  A    between atoms: _298  and  _300
REMARK  115  A    between atoms: _300  and  _301
REMARK  116  A    between atoms: _300  and  _303
REMARK  117  A    between atoms: _303  and  _304
REMARK  118  A    between atoms: _307  and  _309
REMARK  119  A    between atoms: _309  and  _310
REMARK  120  A    between atoms: _309  and  _312
REMARK  121  A    between atoms: _312  and  _313
REMARK  122  A    between atoms: _318  and  _320
REMARK  123  A    between atoms: _320  and  _321
REMARK  124  A    between atoms: _323  and  _325
REMARK  125  A    between atoms: _325  and  _326
REMARK  126  A    between atoms: _325  and  _328
REMARK  127  A    between atoms: _331  and  _333
REMARK  128  A    between atoms: _333  and  _334
REMARK  129  A    between atoms: _337  and  _339
REMARK  130  A    between atoms: _339  and  _340
REMARK  131  A    between atoms: _339  and  _342
REMARK  132  A    between atoms: _342  and  _343
REMARK  133  A    between atoms: _348  and  _350
REMARK  134  A    between atoms: _350  and  _351
REMARK  135  A    between atoms: _350  and  _353
REMARK  136  A    between atoms: _353  and  _354
REMARK  137  A    between atoms: _354  and  _355
REMARK  138  A    between atoms: _355  and  _356
REMARK  139  A    between atoms: _356  and  _357
REMARK  140  A    between atoms: _361  and  _363
REMARK  141  A    between atoms: _363  and  _364
REMARK  142  A    between atoms: _363  and  _366
REMARK  143  A    between atoms: _366  and  _367
REMARK  144  A    between atoms: _370  and  _372
REMARK  145  A    between atoms: _372  and  _373
REMARK  146  A    between atoms: _372  and  _375
REMARK  147  A    between atoms: _375  and  _376
REMARK  148  A    between atoms: _381  and  _383
REMARK  149  A    between atoms: _383  and  _384
REMARK  150  A    between atoms: _386  and  _388
REMARK  151  A    between atoms: _388  and  _389
REMARK  152  A    between atoms: _388  and  _391
REMARK  153  A    between atoms: _391  and  _392
REMARK  154  A    between atoms: _392  and  _393
REMARK  155  A    between atoms: _393  and  _394
REMARK  156  A    between atoms: _394  and  _395
REMARK  157  A    between atoms: _399  and  _401
REMARK  158  A    between atoms: _401  and  _402
REMARK  159  A    between atoms: _401  and  _404
REMARK  160  A    between atoms: _404  and  _405
REMARK  161  A    between atoms: _405  and  _406
REMARK  162  A    between atoms: _406  and  _407
REMARK  163  A    between atoms: _416  and  _418
REMARK  164  A    between atoms: _418  and  _419
REMARK  165  A    between atoms: _418  and  _421
REMARK  166  A    between atoms: _421  and  _422
REMARK  167  A    between atoms: _427  and  _428
REMARK  168  A    between atoms: _430  and  _432
REMARK  169  A    between atoms: _432  and  _433
REMARK  170  A    between atoms: _432  and  _435
REMARK  171  A    between atoms: _435  and  _436
REMARK  172  A    between atoms: _436  and  _437
REMARK  173  A    between atoms: _437  and  _438
REMARK  174  A    between atoms: _438  and  _439
REMARK  175  A    between atoms: _443  and  _445
REMARK  176  A    between atoms: _445  and  _446
REMARK  177  A    between atoms: _445  and  _448
REMARK  178  A    between atoms: _448  and  _449
REMARK  179  A    between atoms: _449  and  _450
REMARK  180  A    between atoms: _455  and  _457
REMARK  181  A    between atoms: _457  and  _458
REMARK  182  A    between atoms: _457  and  _460
REMARK  183  A    between atoms: _460  and  _461
REMARK  184  A    between atoms: _463  and  _465
REMARK  185  A    between atoms: _465  and  _466
REMARK  186  A    between atoms: _465  and  _468
REMARK  187  A    between atoms: _468  and  _469
REMARK  188  A    between atoms: _472  and  _474
REMARK  189  A    between atoms: _474  and  _475
REMARK  190  A    between atoms: _474  and  _477
REMARK  191  A    between atoms: _477  and  _478
REMARK  192  A    between atoms: _478  and  _479
REMARK  193  A    between atoms: _482  and  _484
REMARK  194  A    between atoms: _484  and  _485
REMARK  195  A    between atoms: _488  and  _490
REMARK  196  A    between atoms: _490  and  _491
REMARK  197  A    between atoms: _490  and  _493
REMARK  198  A    between atoms: _493  and  _494
REMARK  199  A    between atoms: _496  and  _498
REMARK  200  A    between atoms: _498  and  _499
REMARK  201  A    between atoms: _501  and  _503
REMARK  202  A    between atoms: _503  and  _504
REMARK  203  A    between atoms: _503  and  _506
REMARK  204  A    between atoms: _506  and  _507
REMARK  205  A    between atoms: _510  and  _512
REMARK  206  A    between atoms: _512  and  _513
REMARK  207  A    between atoms: _515  and  _517
REMARK  208  A    between atoms: _517  and  _518
REMARK  209  A    between atoms: _517  and  _520
REMARK  210  A    between atoms: _520  and  _521
REMARK  211  A    between atoms: _526  and  _528
REMARK  212  A    between atoms: _528  and  _529
REMARK  213  A    between atoms: _528  and  _531
REMARK  214  A    between atoms: _531  and  _532
REMARK  215  A    between atoms: _532  and  _533
REMARK  216  A    between atoms: _540  and  _541
REMARK  217  A    between atoms: _541  and  _557
REMARK  218  A    between atoms: _542  and  _544
REMARK  219  A    between atoms: _544  and  _545
REMARK  220  A    between atoms: _545  and  _546
REMARK  221  A    between atoms: _550  and  _552
REMARK  222  A    between atoms: _552  and  _553
REMARK  223  A    between atoms: _552  and  _560
REMARK  224  A    between atoms: _553  and  _554
REMARK  225  A    between atoms: _554  and  _555
REMARK  226  A    between atoms: _555  and  _556
REMARK  227  A    between atoms: _556  and  _557
REMARK  228  A    between atoms: _562  and  _564
REMARK  229  A    between atoms: _564  and  _565
REMARK  230  A    between atoms: _564  and  _567
REMARK  231  A    between atoms: _567  and  _568
REMARK  232  A    between atoms: _571  and  _573
REMARK  233  A    between atoms: _573  and  _574
REMARK  234  A    between atoms: _576  and  _578
REMARK  235  A    between atoms: _578  and  _579
REMARK  236  A    between atoms: _582  and  _584
REMARK  237  A    between atoms: _584  and  _585
REMARK  238  A    between atoms: _584  and  _587
REMARK  239  A    between atoms: _587  and  _588
REMARK  240  A    between atoms: _593  and  _594
REMARK                            x       y       z     vdW  Elec       q    Type
REMARK                         _______ _______ _______ _____ _____    ______ ____
ROOT
ATOM      1  O   HOH     1      29.282  27.345  20.660  0.00  0.00    +0.000 OA
ENDROOT
TORSDOF 0
REMARK  Name = ../refined-set-2016/3sym/3sym_pocket.pdb
REMARK  240 active torsions:
REMARK  status: ('A' for Active; 'I' for Inactive)
REMARK    1  A    between atoms: _1  and  _3
REMARK    2  A    between atoms: _3  and  _4
REMARK    3  A    between atoms: _3  and  _6
REMARK    4  A    between atoms: _6  and  _7
REMARK    5  A    between atoms: _12  and  _13
REMARK    6  A    between atoms: _15  and  _17
REMARK    7  A    between atoms: _17  and  _18
REMARK    8  A    between atoms: _17  and  _20
REMARK    9  A    between atoms: _20  and  _21
REMARK   10  A    between atoms: _21  and  _22
REMARK   11  A    between atoms: _25  and  _27
REMARK   12  A    between atoms: _27  and  _28
REMARK   13  A    between atoms: _27  and  _30
REMARK   14  A    between atoms: _30  and  _31
REMARK   15  A    between atoms: _36  and  _37
REMARK   16  A    between atoms: _39  and  _41
REMARK   17  A    between atoms: _41  and  _42
REMARK   18  A    between atoms: _44  and  _46
REMARK   19  A    between atoms: _46  and  _47
REMARK   20  A    between atoms: _46  and  _49
REMARK   21  A    between atoms: _49  and  _50
REMARK   22  A    between atoms: _55  and  _57
REMARK   23  A    between atoms: _57  and  _58
REMARK   24  A    between atoms: _60  and  _62
REMARK   25  A    between atoms: _62  and  _63
REMARK   26  A    between atoms: _65  and  _67
REMARK   27  A    between atoms: _67  and  _68
REMARK   28  A    between atoms: _67  and  _70
REMARK   29  A    between atoms: _70  and  _71
REMARK   30  A    between atoms: _74  and  _76
REMARK   31  A    between atoms: _76  and  _77
REMARK   32  A    between atoms: _79  and  _81
REMARK   33  A    between atoms: _81  and  _82
REMARK   34  A    between atoms: _81  and  _84
REMARK   35  A    between atoms: _85  and  _86
REMARK   36  A    between atoms: _86  and  _87
REMARK   37  A    between atoms: _96  and  _98
REMARK   38  A    between atoms: _98  and  _99
REMARK   39  A    between atoms: _98  and  _101
REMARK   40  A    between atoms: _101  and  _102
REMARK   41  A    between atoms: _105  and  _107
REMARK   42  A    between atoms: _107  and  _108
REMARK   43  A    between atoms: _111  and  _113
REMARK   44  A    between atoms: _113  and  _114
REMARK   45  A    between atoms: _113  and  _116
REMARK   46  A    between atoms: _116  and  _117
REMARK   47  A    between atoms: _123  and  _125
REMARK   48  A    between atoms: _125  and  _126
REMARK   49  A    between atoms: _125  and  _128
REMARK   50  A    between atoms: _128  and  _129
REMARK   51  A    between atoms: _134  and  _136
REMARK   52  A    between atoms: _136  and  _137
REMARK   53  A    between atoms: _136  and  _139
REMARK   54  A    between atoms: _139  and  _140
REMARK   55  A    between atoms: _143  and  _145
REMARK   56  A    between atoms: _145  and  _146
REMARK   57  A    between atoms: _145  and  _148
REMARK   58  A    between atoms: _148  and  _149
REMARK   59  A    between atoms: _154  and  _156
REMARK   60  A    between atoms: _156  and  _157
REMARK   61  A    between atoms: _156  and  _159
REMARK   62  A    between atoms: _159  and  _160
REMARK   63  A    between atoms: _166  and  _168
REMARK   64  A    between atoms: _168  and  _169
REMARK   65  A    between atoms: _168  and  _171
REMARK   66  A    between atoms: _171  and  _172
REMARK   67  A    between atoms: _178  and  _180
REMARK   68  A    between atoms: _180  and  _181
REMARK   69  A    between atoms: _180  and  _183
REMARK   70  A    between atoms: _183  and  _184
REMARK   71  A    between atoms: _184  and  _185
REMARK   72  A    between atoms: _185  and  _186
REMARK   73  A    between atoms: _195  and  _197
REMARK   74  A    between atoms: _197  and  _198
REMARK   75  A    between atoms: _197  and  _200
REMARK   76  A    between atoms: _200  and  _201
REMARK   77  A    between atoms: _206  and  _208
REMARK   78  A    between atoms: _208  and  _209
REMARK   79  A    between atoms: _208  and  _211
REMARK   80  A    between atoms: _211  and  _212
REMARK   81  A    between atoms: _215  and  _217
REMARK   82  A    between atoms: _217  and  _218
REMARK   83  A    between atoms: _217  and  _220
REMARK   84  A    between atoms: _220  and  _221
REMARK   85  A    between atoms: _224  and  _226
REMARK   86  A    between atoms: _226  and  _227
REMARK   87  A    between atoms: _226  and  _229
REMARK   88  A    between atoms: _229  and  _230
REMARK   89  A    between atoms: _235  and  _237
REMARK   90  A    between atoms: _237  and  _238
REMARK   91  A    between atoms: _237  and  _240
REMARK   92  A    between atoms: _240  and  _241
REMARK   93  A    between atoms: _244  and  _246
REMARK   94  A    between atoms: _246  and  _247
REMARK   95  A    between atoms: _246  and  _249
REMARK   96  A    between atoms: _249  and  _250
REMARK   97  A    between atoms: _255  and  _257
REMARK   98  A    between atoms: _257  and  _258
REMARK   99  A    between atoms: _257  and  _260
REMARK  100  A    between atoms: _260  and  _261
REMARK  101  A    between atoms: _266  and  _268
REMARK  102  A    between atoms: _268  and  _269
REMARK  103  A    between atoms: _268  and  _271
REMARK  104  A    between atoms: _271  and  _272
REMARK  105  A    between atoms: _275  and  _277
REMARK  106  A    between atoms: _277  and  _278
REMARK  107  A    between atoms: _277  and  _280
REMARK  108  A    between atoms: _283  and  _285
REMARK  109  A    between atoms: _285  and  _286
REMARK  110  A    between atoms: _285  and  _288
REMARK  111  A    between atoms: _288  and  _289
REMARK  112  A    between atoms: _292  and  _294
REMARK  113  A    between atoms: _294  and  _295
REMARK  114  A    between atoms: _298  and  _300
REMARK  115  A    between atoms: _300  and  _301
REMARK  116  A    between atoms: _300  and  _303
REMARK  117  A    between atoms: _303  and  _304
REMARK  118  A    between atoms: _307  and  _309
REMARK  119  A    between atoms: _309  and  _310
REMARK  120  A    between atoms: _309  and  _312
REMARK  121  A    between atoms: _312  and  _313
REMARK  122  A    between atoms: _318  and  _320
REMARK  123  A    between atoms: _320  and  _321
REMARK  124  A    between atoms: _323  and  _325
REMARK  125  A    between atoms: _325  and  _326
REMARK  126  A    between atoms: _325  and  _328
REMARK  127  A    between atoms: _331  and  _333
REMARK  128  A    between atoms: _333  and  _334
REMARK  129  A    between atoms: _337  and  _339
REMARK  130  A    between atoms: _339  and  _340
REMARK  131  A    between atoms: _339  and  _342
REMARK  132  A    between atoms: _342  and  _343
REMARK  133  A    between atoms: _348  and  _350
REMARK  134  A    between atoms: _350  and  _351
REMARK  135  A    between atoms: _350  and  _353
REMARK  136  A    between atoms: _353  and  _354
REMARK  137  A    between atoms: _354  and  _355
REMARK  138  A    between atoms: _355  and  _356
REMARK  139  A    between atoms: _356  and  _357
REMARK  140  A    between atoms: _361  and  _363
REMARK  141  A    between atoms: _363  and  _364
REMARK  142  A    between atoms: _363  and  _366
REMARK  143  A    between atoms: _366  and  _367
REMARK  144  A    between atoms: _370  and  _372
REMARK  145  A    between atoms: _372  and  _373
REMARK  146  A    between atoms: _372  and  _375
REMARK  147  A    between atoms: _375  and  _376
REMARK  148  A    between atoms: _381  and  _383
REMARK  149  A    between atoms: _383  and  _384
REMARK  150  A    between atoms: _386  and  _388
REMARK  151  A    between atoms: _388  and  _389
REMARK  152  A    between atoms: _388  and  _391
REMARK  153  A    between atoms: _391  and  _392
REMARK  154  A    between atoms: _392  and  _393
REMARK  155  A    between atoms: _393  and  _394
REMARK  156  A    between atoms: _394  and  _395
REMARK  157  A    between atoms: _399  and  _401
REMARK  158  A    between atoms: _401  and  _402
REMARK  159  A    between atoms: _401  and  _404
REMARK  160  A    between atoms: _404  and  _405
REMARK  161  A    between atoms: _405  and  _406
REMARK  162  A    between atoms: _406  and  _407
REMARK  163  A    between atoms: _416  and  _418
REMARK  164  A    between atoms: _418  and  _419
REMARK  165  A    between atoms: _418  and  _421
REMARK  166  A    between atoms: _421  and  _422
REMARK  167  A    between atoms: _427  and  _428
REMARK  168  A    between atoms: _430  and  _432
REMARK  169  A    between atoms: _432  and  _433
REMARK  170  A    between atoms: _432  and  _435
REMARK  171  A    between atoms: _435  and  _436
REMARK  172  A    between atoms: _436  and  _437
REMARK  173  A    between atoms: _437  and  _438
REMARK  174  A    between atoms: _438  and  _439
REMARK  175  A    between atoms: _443  and  _445
REMARK  176  A    between atoms: _445  and  _446
REMARK  177  A    between atoms: _445  and  _448
REMARK  178  A    between atoms: _448  and  _449
REMARK  179  A    between atoms: _449  and  _450
REMARK  180  A    between atoms: _455  and  _457
REMARK  181  A    between atoms: _457  and  _458
REMARK  182  A    between atoms: _457  and  _460
REMARK  183  A    between atoms: _460  and  _461
REMARK  184  A    between atoms: _463  and  _465
REMARK  185  A    between atoms: _465  and  _466
REMARK  186  A    between atoms: _465  and  _468
REMARK  187  A    between atoms: _468  and  _469
REMARK  188  A    between atoms: _472  and  _474
REMARK  189  A    between atoms: _474  and  _475
REMARK  190  A    between atoms: _474  and  _477
REMARK  191  A    between atoms: _477  and  _478
REMARK  192  A    between atoms: _478  and  _479
REMARK  193  A    between atoms: _482  and  _484
REMARK  194  A    between atoms: _484  and  _485
REMARK  195  A    between atoms: _488  and  _490
REMARK  196  A    between atoms: _490  and  _491
REMARK  197  A    between atoms: _490  and  _493
REMARK  198  A    between atoms: _493  and  _494
REMARK  199  A    between atoms: _496  and  _498
REMARK  200  A    between atoms: _498  and  _499
REMARK  201  A    between atoms: _501  and  _503
REMARK  202  A    between atoms: _503  and  _504
REMARK  203  A    between atoms: _503  and  _506
REMARK  204  A    between atoms: _506  and  _507
REMARK  205  A    between atoms: _510  and  _512
REMARK  206  A    between atoms: _512  and  _513
REMARK  207  A    between atoms: _515  and  _517
REMARK  208  A    between atoms: _517  and  _518
REMARK  209  A    between atoms: _517  and  _520
REMARK  210  A    between atoms: _520  and  _521
REMARK  211  A    between atoms: _526  and  _528
REMARK  212  A    between atoms: _528  and  _529
REMARK  213  A    between atoms: _528  and  _531
REMARK  214  A    between atoms: _531  and  _532
REMARK  215  A    between atoms: _532  and  _533
REMARK  216  A    between atoms: _540  and  _541
REMARK  217  A    between atoms: _541  and  _557
REMARK  218  A    between atoms: _542  and  _544
REMARK  219  A    between atoms: _544  and  _545
REMARK  220  A    between atoms: _545  and  _546
REMARK  221  A    between atoms: _550  and  _552
REMARK  222  A    between atoms: _552  and  _553
REMARK  223  A    between atoms: _552  and  _560
REMARK  224  A    between atoms: _553  and  _554
REMARK  225  A    between atoms: _554  and  _555
REMARK  226  A    between atoms: _555  and  _556
REMARK  227  A    between atoms: _556  and  _557
REMARK  228  A    between atoms: _562  and  _564
REMARK  229  A    between atoms: _564  and  _565
REMARK  230  A    between atoms: _564  and  _567
REMARK  231  A    between atoms: _567  and  _568
REMARK  232  A    between atoms: _571  and  _573
REMARK  233  A    between atoms: _573  and  _574
REMARK  234  A    between atoms: _576  and  _578
REMARK  235  A    between atoms: _578  and  _579
REMARK  236  A    between atoms: _582  and  _584
REMARK  237  A    between atoms: _584  and  _585
REMARK  238  A    between atoms: _584  and  _587
REMARK  239  A    between atoms: _587  and  _588
REMARK  240  A    between atoms: _593  and  _594
REMARK                            x       y       z     vdW  Elec       q    Type
REMARK                         _______ _______ _______ _____ _____    ______ ____
ROOT
ATOM      1  O   HOH     1      26.163  16.429  28.680  0.00  0.00    +0.000 OA
ENDROOT
TORSDOF 0
REMARK  Name = ../refined-set-2016/3sym/3sym_pocket.pdb
REMARK  240 active torsions:
REMARK  status: ('A' for Active; 'I' for Inactive)
REMARK    1  A    between atoms: _1  and  _3
REMARK    2  A    between atoms: _3  and  _4
REMARK    3  A    between atoms: _3  and  _6
REMARK    4  A    between atoms: _6  and  _7
REMARK    5  A    between atoms: _12  and  _13
REMARK    6  A    between atoms: _15  and  _17
REMARK    7  A    between atoms: _17  and  _18
REMARK    8  A    between atoms: _17  and  _20
REMARK    9  A    between atoms: _20  and  _21
REMARK   10  A    between atoms: _21  and  _22
REMARK   11  A    between atoms: _25  and  _27
REMARK   12  A    between atoms: _27  and  _28
REMARK   13  A    between atoms: _27  and  _30
REMARK   14  A    between atoms: _30  and  _31
REMARK   15  A    between atoms: _36  and  _37
REMARK   16  A    between atoms: _39  and  _41
REMARK   17  A    between atoms: _41  and  _42
REMARK   18  A    between atoms: _44  and  _46
REMARK   19  A    between atoms: _46  and  _47
REMARK   20  A    between atoms: _46  and  _49
REMARK   21  A    between atoms: _49  and  _50
REMARK   22  A    between atoms: _55  and  _57
REMARK   23  A    between atoms: _57  and  _58
REMARK   24  A    between atoms: _60  and  _62
REMARK   25  A    between atoms: _62  and  _63
REMARK   26  A    between atoms: _65  and  _67
REMARK   27  A    between atoms: _67  and  _68
REMARK   28  A    between atoms: _67  and  _70
REMARK   29  A    between atoms: _70  and  _71
REMARK   30  A    between atoms: _74  and  _76
REMARK   31  A    between atoms: _76  and  _77
REMARK   32  A    between atoms: _79  and  _81
REMARK   33  A    between atoms: _81  and  _82
REMARK   34  A    between atoms: _81  and  _84
REMARK   35  A    between atoms: _85  and  _86
REMARK   36  A    between atoms: _86  and  _87
REMARK   37  A    between atoms: _96  and  _98
REMARK   38  A    between atoms: _98  and  _99
REMARK   39  A    between atoms: _98  and  _101
REMARK   40  A    between atoms: _101  and  _102
REMARK   41  A    between atoms: _105  and  _107
REMARK   42  A    between atoms: _107  and  _108
REMARK   43  A    between atoms: _111  and  _113
REMARK   44  A    between atoms: _113  and  _114
REMARK   45  A    between atoms: _113  and  _116
REMARK   46  A    between atoms: _116  and  _117
REMARK   47  A    between atoms: _123  and  _125
REMARK   48  A    between atoms: _125  and  _126
REMARK   49  A    between atoms: _125  and  _128
REMARK   50  A    between atoms: _128  and  _129
REMARK   51  A    between atoms: _134  and  _136
REMARK   52  A    between atoms: _136  and  _137
REMARK   53  A    between atoms: _136  and  _139
REMARK   54  A    between atoms: _139  and  _140
REMARK   55  A    between atoms: _143  and  _145
REMARK   56  A    between atoms: _145  and  _146
REMARK   57  A    between atoms: _145  and  _148
REMARK   58  A    between atoms: _148  and  _149
REMARK   59  A    between atoms: _154  and  _156
REMARK   60  A    between atoms: _156  and  _157
REMARK   61  A    between atoms: _156  and  _159
REMARK   62  A    between atoms: _159  and  _160
REMARK   63  A    between atoms: _166  and  _168
REMARK   64  A    between atoms: _168  and  _169
REMARK   65  A    between atoms: _168  and  _171
REMARK   66  A    between atoms: _171  and  _172
REMARK   67  A    between atoms: _178  and  _180
REMARK   68  A    between atoms: _180  and  _181
REMARK   69  A    between atoms: _180  and  _183
REMARK   70  A    between atoms: _183  and  _184
REMARK   71  A    between atoms: _184  and  _185
REMARK   72  A    between atoms: _185  and  _186
REMARK   73  A    between atoms: _195  and  _197
REMARK   74  A    between atoms: _197  and  _198
REMARK   75  A    between atoms: _197  and  _200
REMARK   76  A    between atoms: _200  and  _201
REMARK   77  A    between atoms: _206  and  _208
REMARK   78  A    between atoms: _208  and  _209
REMARK   79  A    between atoms: _208  and  _211
REMARK   80  A    between atoms: _211  and  _212
REMARK   81  A    between atoms: _215  and  _217
REMARK   82  A    between atoms: _217  and  _218
REMARK   83  A    between atoms: _217  and  _220
REMARK   84  A    between atoms: _220  and  _221
REMARK   85  A    between atoms: _224  and  _226
REMARK   86  A    between atoms: _226  and  _227
REMARK   87  A    between atoms: _226  and  _229
REMARK   88  A    between atoms: _229  and  _230
REMARK   89  A    between atoms: _235  and  _237
REMARK   90  A    between atoms: _237  and  _238
REMARK   91  A    between atoms: _237  and  _240
REMARK   92  A    between atoms: _240  and  _241
REMARK   93  A    between atoms: _244  and  _246
REMARK   94  A    between atoms: _246  and  _247
REMARK   95  A    between atoms: _246  and  _249
REMARK   96  A    between atoms: _249  and  _250
REMARK   97  A    between atoms: _255  and  _257
REMARK   98  A    between atoms: _257  and  _258
REMARK   99  A    between atoms: _257  and  _260
REMARK  100  A    between atoms: _260  and  _261
REMARK  101  A    between atoms: _266  and  _268
REMARK  102  A    between atoms: _268  and  _269
REMARK  103  A    between atoms: _268  and  _271
REMARK  104  A    between atoms: _271  and  _272
REMARK  105  A    between atoms: _275  and  _277
REMARK  106  A    between atoms: _277  and  _278
REMARK  107  A    between atoms: _277  and  _280
REMARK  108  A    between atoms: _283  and  _285
REMARK  109  A    between atoms: _285  and  _286
REMARK  110  A    between atoms: _285  and  _288
REMARK  111  A    between atoms: _288  and  _289
REMARK  112  A    between atoms: _292  and  _294
REMARK  113  A    between atoms: _294  and  _295
REMARK  114  A    between atoms: _298  and  _300
REMARK  115  A    between atoms: _300  and  _301
REMARK  116  A    between atoms: _300  and  _303
REMARK  117  A    between atoms: _303  and  _304
REMARK  118  A    between atoms: _307  and  _309
REMARK  119  A    between atoms: _309  and  _310
REMARK  120  A    between atoms: _309  and  _312
REMARK  121  A    between atoms: _312  and  _313
REMARK  122  A    between atoms: _318  and  _320
REMARK  123  A    between atoms: _320  and  _321
REMARK  124  A    between atoms: _323  and  _325
REMARK  125  A    between atoms: _325  and  _326
REMARK  126  A    between atoms: _325  and  _328
REMARK  127  A    between atoms: _331  and  _333
REMARK  128  A    between atoms: _333  and  _334
REMARK  129  A    between atoms: _337  and  _339
REMARK  130  A    between atoms: _339  and  _340
REMARK  131  A    between atoms: _339  and  _342
REMARK  132  A    between atoms: _342  and  _343
REMARK  133  A    between atoms: _348  and  _350
REMARK  134  A    between atoms: _350  and  _351
REMARK  135  A    between atoms: _350  and  _353
REMARK  136  A    between atoms: _353  and  _354
REMARK  137  A    between atoms: _354  and  _355
REMARK  138  A    between atoms: _355  and  _356
REMARK  139  A    between atoms: _356  and  _357
REMARK  140  A    between atoms: _361  and  _363
REMARK  141  A    between atoms: _363  and  _364
REMARK  142  A    between atoms: _363  and  _366
REMARK  143  A    between atoms: _366  and  _367
REMARK  144  A    between atoms: _370  and  _372
REMARK  145  A    between atoms: _372  and  _373
REMARK  146  A    between atoms: _372  and  _375
REMARK  147  A    between atoms: _375  and  _376
REMARK  148  A    between atoms: _381  and  _383
REMARK  149  A    between atoms: _383  and  _384
REMARK  150  A    between atoms: _386  and  _388
REMARK  151  A    between atoms: _388  and  _389
REMARK  152  A    between atoms: _388  and  _391
REMARK  153  A    between atoms: _391  and  _392
REMARK  154  A    between atoms: _392  and  _393
REMARK  155  A    between atoms: _393  and  _394
REMARK  156  A    between atoms: _394  and  _395
REMARK  157  A    between atoms: _399  and  _401
REMARK  158  A    between atoms: _401  and  _402
REMARK  159  A    between atoms: _401  and  _404
REMARK  160  A    between atoms: _404  and  _405
REMARK  161  A    between atoms: _405  and  _406
REMARK  162  A    between atoms: _406  and  _407
REMARK  163  A    between atoms: _416  and  _418
REMARK  164  A    between atoms: _418  and  _419
REMARK  165  A    between atoms: _418  and  _421
REMARK  166  A    between atoms: _421  and  _422
REMARK  167  A    between atoms: _427  and  _428
REMARK  168  A    between atoms: _430  and  _432
REMARK  169  A    between atoms: _432  and  _433
REMARK  170  A    between atoms: _432  and  _435
REMARK  171  A    between atoms: _435  and  _436
REMARK  172  A    between atoms: _436  and  _437
REMARK  173  A    between atoms: _437  and  _438
REMARK  174  A    between atoms: _438  and  _439
REMARK  175  A    between atoms: _443  and  _445
REMARK  176  A    between atoms: _445  and  _446
REMARK  177  A    between atoms: _445  and  _448
REMARK  178  A    between atoms: _448  and  _449
REMARK  179  A    between atoms: _449  and  _450
REMARK  180  A    between atoms: _455  and  _457
REMARK  181  A    between atoms: _457  and  _458
REMARK  182  A    between atoms: _457  and  _460
REMARK  183  A    between atoms: _460  and  _461
REMARK  184  A    between atoms: _463  and  _465
REMARK  185  A    between atoms: _465  and  _466
REMARK  186  A    between atoms: _465  and  _468
REMARK  187  A    between atoms: _468  and  _469
REMARK  188  A    between atoms: _472  and  _474
REMARK  189  A    between atoms: _474  and  _475
REMARK  190  A    between atoms: _474  and  _477
REMARK  191  A    between atoms: _477  and  _478
REMARK  192  A    between atoms: _478  and  _479
REMARK  193  A    between atoms: _482  and  _484
REMARK  194  A    between atoms: _484  and  _485
REMARK  195  A    between atoms: _488  and  _490
REMARK  196  A    between atoms: _490  and  _491
REMARK  197  A    between atoms: _490  and  _493
REMARK  198  A    between atoms: _493  and  _494
REMARK  199  A    between atoms: _496  and  _498
REMARK  200  A    between atoms: _498  and  _499
REMARK  201  A    between atoms: _501  and  _503
REMARK  202  A    between atoms: _503  and  _504
REMARK  203  A    between atoms: _503  and  _506
REMARK  204  A    between atoms: _506  and  _507
REMARK  205  A    between atoms: _510  and  _512
REMARK  206  A    between atoms: _512  and  _513
REMARK  207  A    between atoms: _515  and  _517
REMARK  208  A    between atoms: _517  and  _518
REMARK  209  A    between atoms: _517  and  _520
REMARK  210  A    between atoms: _520  and  _521
REMARK  211  A    between atoms: _526  and  _528
REMARK  212  A    between atoms: _528  and  _529
REMARK  213  A    between atoms: _528  and  _531
REMARK  214  A    between atoms: _531  and  _532
REMARK  215  A    between atoms: _532  and  _533
REMARK  216  A    between atoms: _540  and  _541
REMARK  217  A    between atoms: _541  and  _557
REMARK  218  A    between atoms: _542  and  _544
REMARK  219  A    between atoms: _544  and  _545
REMARK  220  A    between atoms: _545  and  _546
REMARK  221  A    between atoms: _550  and  _552
REMARK  222  A    between atoms: _552  and  _553
REMARK  223  A    between atoms: _552  and  _560
REMARK  224  A    between atoms: _553  and  _554
REMARK  225  A    between atoms: _554  and  _555
REMARK  226  A    between atoms: _555  and  _556
REMARK  227  A    between atoms: _556  and  _557
REMARK  228  A    between atoms: _562  and  _564
REMARK  229  A    between atoms: _564  and  _565
REMARK  230  A    between atoms: _564  and  _567
REMARK  231  A    between atoms: _567  and  _568
REMARK  232  A    between atoms: _571  and  _573
REMARK  233  A    between atoms: _573  and  _574
REMARK  234  A    between atoms: _576  and  _578
REMARK  235  A    between atoms: _578  and  _579
REMARK  236  A    between atoms: _582  and  _584
REMARK  237  A    between atoms: _584  and  _585
REMARK  238  A    between atoms: _584  and  _587
REMARK  239  A    between atoms: _587  and  _588
REMARK  240  A    between atoms: _593  and  _594
REMARK                            x       y       z     vdW  Elec       q    Type
REMARK                         _______ _______ _______ _____ _____    ______ ____
ROOT
ATOM      1  O   HOH     1      44.080  22.814  32.232  0.00  0.00    +0.000 OA
ENDROOT
TORSDOF 0
REMARK  Name = ../refined-set-2016/3sym/3sym_pocket.pdb
REMARK  240 active torsions:
REMARK  status: ('A' for Active; 'I' for Inactive)
REMARK    1  A    between atoms: _1  and  _3
REMARK    2  A    between atoms: _3  and  _4
REMARK    3  A    between atoms: _3  and  _6
REMARK    4  A    between atoms: _6  and  _7
REMARK    5  A    between atoms: _12  and  _13
REMARK    6  A    between atoms: _15  and  _17
REMARK    7  A    between atoms: _17  and  _18
REMARK    8  A    between atoms: _17  and  _20
REMARK    9  A    between atoms: _20  and  _21
REMARK   10  A    between atoms: _21  and  _22
REMARK   11  A    between atoms: _25  and  _27
REMARK   12  A    between atoms: _27  and  _28
REMARK   13  A    between atoms: _27  and  _30
REMARK   14  A    between atoms: _30  and  _31
REMARK   15  A    between atoms: _36  and  _37
REMARK   16  A    between atoms: _39  and  _41
REMARK   17  A    between atoms: _41  and  _42
REMARK   18  A    between atoms: _44  and  _46
REMARK   19  A    between atoms: _46  and  _47
REMARK   20  A    between atoms: _46  and  _49
REMARK   21  A    between atoms: _49  and  _50
REMARK   22  A    between atoms: _55  and  _57
REMARK   23  A    between atoms: _57  and  _58
REMARK   24  A    between atoms: _60  and  _62
REMARK   25  A    between atoms: _62  and  _63
REMARK   26  A    between atoms: _65  and  _67
REMARK   27  A    between atoms: _67  and  _68
REMARK   28  A    between atoms: _67  and  _70
REMARK   29  A    between atoms: _70  and  _71
REMARK   30  A    between atoms: _74  and  _76
REMARK   31  A    between atoms: _76  and  _77
REMARK   32  A    between atoms: _79  and  _81
REMARK   33  A    between atoms: _81  and  _82
REMARK   34  A    between atoms: _81  and  _84
REMARK   35  A    between atoms: _85  and  _86
REMARK   36  A    between atoms: _86  and  _87
REMARK   37  A    between atoms: _96  and  _98
REMARK   38  A    between atoms: _98  and  _99
REMARK   39  A    between atoms: _98  and  _101
REMARK   40  A    between atoms: _101  and  _102
REMARK   41  A    between atoms: _105  and  _107
REMARK   42  A    between atoms: _107  and  _108
REMARK   43  A    between atoms: _111  and  _113
REMARK   44  A    between atoms: _113  and  _114
REMARK   45  A    between atoms: _113  and  _116
REMARK   46  A    between atoms: _116  and  _117
REMARK   47  A    between atoms: _123  and  _125
REMARK   48  A    between atoms: _125  and  _126
REMARK   49  A    between atoms: _125  and  _128
REMARK   50  A    between atoms: _128  and  _129
REMARK   51  A    between atoms: _134  and  _136
REMARK   52  A    between atoms: _136  and  _137
REMARK   53  A    between atoms: _136  and  _139
REMARK   54  A    between atoms: _139  and  _140
REMARK   55  A    between atoms: _143  and  _145
REMARK   56  A    between atoms: _145  and  _146
REMARK   57  A    between atoms: _145  and  _148
REMARK   58  A    between atoms: _148  and  _149
REMARK   59  A    between atoms: _154  and  _156
REMARK   60  A    between atoms: _156  and  _157
REMARK   61  A    between atoms: _156  and  _159
REMARK   62  A    between atoms: _159  and  _160
REMARK   63  A    between atoms: _166  and  _168
REMARK   64  A    between atoms: _168  and  _169
REMARK   65  A    between atoms: _168  and  _171
REMARK   66  A    between atoms: _171  and  _172
REMARK   67  A    between atoms: _178  and  _180
REMARK   68  A    between atoms: _180  and  _181
REMARK   69  A    between atoms: _180  and  _183
REMARK   70  A    between atoms: _183  and  _184
REMARK   71  A    between atoms: _184  and  _185
REMARK   72  A    between atoms: _185  and  _186
REMARK   73  A    between atoms: _195  and  _197
REMARK   74  A    between atoms: _197  and  _198
REMARK   75  A    between atoms: _197  and  _200
REMARK   76  A    between atoms: _200  and  _201
REMARK   77  A    between atoms: _206  and  _208
REMARK   78  A    between atoms: _208  and  _209
REMARK   79  A    between atoms: _208  and  _211
REMARK   80  A    between atoms: _211  and  _212
REMARK   81  A    between atoms: _215  and  _217
REMARK   82  A    between atoms: _217  and  _218
REMARK   83  A    between atoms: _217  and  _220
REMARK   84  A    between atoms: _220  and  _221
REMARK   85  A    between atoms: _224  and  _226
REMARK   86  A    between atoms: _226  and  _227
REMARK   87  A    between atoms: _226  and  _229
REMARK   88  A    between atoms: _229  and  _230
REMARK   89  A    between atoms: _235  and  _237
REMARK   90  A    between atoms: _237  and  _238
REMARK   91  A    between atoms: _237  and  _240
REMARK   92  A    between atoms: _240  and  _241
REMARK   93  A    between atoms: _244  and  _246
REMARK   94  A    between atoms: _246  and  _247
REMARK   95  A    between atoms: _246  and  _249
REMARK   96  A    between atoms: _249  and  _250
REMARK   97  A    between atoms: _255  and  _257
REMARK   98  A    between atoms: _257  and  _258
REMARK   99  A    between atoms: _257  and  _260
REMARK  100  A    between atoms: _260  and  _261
REMARK  101  A    between atoms: _266  and  _268
REMARK  102  A    between atoms: _268  and  _269
REMARK  103  A    between atoms: _268  and  _271
REMARK  104  A    between atoms: _271  and  _272
REMARK  105  A    between atoms: _275  and  _277
REMARK  106  A    between atoms: _277  and  _278
REMARK  107  A    between atoms: _277  and  _280
REMARK  108  A    between atoms: _283  and  _285
REMARK  109  A    between atoms: _285  and  _286
REMARK  110  A    between atoms: _285  and  _288
REMARK  111  A    between atoms: _288  and  _289
REMARK  112  A    between atoms: _292  and  _294
REMARK  113  A    between atoms: _294  and  _295
REMARK  114  A    between atoms: _298  and  _300
REMARK  115  A    between atoms: _300  and  _301
REMARK  116  A    between atoms: _300  and  _303
REMARK  117  A    between atoms: _303  and  _304
REMARK  118  A    between atoms: _307  and  _309
REMARK  119  A    between atoms: _309  and  _310
REMARK  120  A    between atoms: _309  and  _312
REMARK  121  A    between atoms: _312  and  _313
REMARK  122  A    between atoms: _318  and  _320
REMARK  123  A    between atoms: _320  and  _321
REMARK  124  A    between atoms: _323  and  _325
REMARK  125  A    between atoms: _325  and  _326
REMARK  126  A    between atoms: _325  and  _328
REMARK  127  A    between atoms: _331  and  _333
REMARK  128  A    between atoms: _333  and  _334
REMARK  129  A    between atoms: _337  and  _339
REMARK  130  A    between atoms: _339  and  _340
REMARK  131  A    between atoms: _339  and  _342
REMARK  132  A    between atoms: _342  and  _343
REMARK  133  A    between atoms: _348  and  _350
REMARK  134  A    between atoms: _350  and  _351
REMARK  135  A    between atoms: _350  and  _353
REMARK  136  A    between atoms: _353  and  _354
REMARK  137  A    between atoms: _354  and  _355
REMARK  138  A    between atoms: _355  and  _356
REMARK  139  A    between atoms: _356  and  _357
REMARK  140  A    between atoms: _361  and  _363
REMARK  141  A    between atoms: _363  and  _364
REMARK  142  A    between atoms: _363  and  _366
REMARK  143  A    between atoms: _366  and  _367
REMARK  144  A    between atoms: _370  and  _372
REMARK  145  A    between atoms: _372  and  _373
REMARK  146  A    between atoms: _372  and  _375
REMARK  147  A    between atoms: _375  and  _376
REMARK  148  A    between atoms: _381  and  _383
REMARK  149  A    between atoms: _383  and  _384
REMARK  150  A    between atoms: _386  and  _388
REMARK  151  A    between atoms: _388  and  _389
REMARK  152  A    between atoms: _388  and  _391
REMARK  153  A    between atoms: _391  and  _392
REMARK  154  A    between atoms: _392  and  _393
REMARK  155  A    between atoms: _393  and  _394
REMARK  156  A    between atoms: _394  and  _395
REMARK  157  A    between atoms: _399  and  _401
REMARK  158  A    between atoms: _401  and  _402
REMARK  159  A    between atoms: _401  and  _404
REMARK  160  A    between atoms: _404  and  _405
REMARK  161  A    between atoms: _405  and  _406
REMARK  162  A    between atoms: _406  and  _407
REMARK  163  A    between atoms: _416  and  _418
REMARK  164  A    between atoms: _418  and  _419
REMARK  165  A    between atoms: _418  and  _421
REMARK  166  A    between atoms: _421  and  _422
REMARK  167  A    between atoms: _427  and  _428
REMARK  168  A    between atoms: _430  and  _432
REMARK  169  A    between atoms: _432  and  _433
REMARK  170  A    between atoms: _432  and  _435
REMARK  171  A    between atoms: _435  and  _436
REMARK  172  A    between atoms: _436  and  _437
REMARK  173  A    between atoms: _437  and  _438
REMARK  174  A    between atoms: _438  and  _439
REMARK  175  A    between atoms: _443  and  _445
REMARK  176  A    between atoms: _445  and  _446
REMARK  177  A    between atoms: _445  and  _448
REMARK  178  A    between atoms: _448  and  _449
REMARK  179  A    between atoms: _449  and  _450
REMARK  180  A    between atoms: _455  and  _457
REMARK  181  A    between atoms: _457  and  _458
REMARK  182  A    between atoms: _457  and  _460
REMARK  183  A    between atoms: _460  and  _461
REMARK  184  A    between atoms: _463  and  _465
REMARK  185  A    between atoms: _465  and  _466
REMARK  186  A    between atoms: _465  and  _468
REMARK  187  A    between atoms: _468  and  _469
REMARK  188  A    between atoms: _472  and  _474
REMARK  189  A    between atoms: _474  and  _475
REMARK  190  A    between atoms: _474  and  _477
REMARK  191  A    between atoms: _477  and  _478
REMARK  192  A    between atoms: _478  and  _479
REMARK  193  A    between atoms: _482  and  _484
REMARK  194  A    between atoms: _484  and  _485
REMARK  195  A    between atoms: _488  and  _490
REMARK  196  A    between atoms: _490  and  _491
REMARK  197  A    between atoms: _490  and  _493
REMARK  198  A    between atoms: _493  and  _494
REMARK  199  A    between atoms: _496  and  _498
REMARK  200  A    between atoms: _498  and  _499
REMARK  201  A    between atoms: _501  and  _503
REMARK  202  A    between atoms: _503  and  _504
REMARK  203  A    between atoms: _503  and  _506
REMARK  204  A    between atoms: _506  and  _507
REMARK  205  A    between atoms: _510  and  _512
REMARK  206  A    between atoms: _512  and  _513
REMARK  207  A    between atoms: _515  and  _517
REMARK  208  A    between atoms: _517  and  _518
REMARK  209  A    between atoms: _517  and  _520
REMARK  210  A    between atoms: _520  and  _521
REMARK  211  A    between atoms: _526  and  _528
REMARK  212  A    between atoms: _528  and  _529
REMARK  213  A    between atoms: _528  and  _531
REMARK  214  A    between atoms: _531  and  _532
REMARK  215  A    between atoms: _532  and  _533
REMARK  216  A    between atoms: _540  and  _541
REMARK  217  A    between atoms: _541  and  _557
REMARK  218  A    between atoms: _542  and  _544
REMARK  219  A    between atoms: _544  and  _545
REMARK  220  A    between atoms: _545  and  _546
REMARK  221  A    between atoms: _550  and  _552
REMARK  222  A    between atoms: _552  and  _553
REMARK  223  A    between atoms: _552  and  _560
REMARK  224  A    between atoms: _553  and  _554
REMARK  225  A    between atoms: _554  and  _555
REMARK  226  A    between atoms: _555  and  _556
REMARK  227  A    between atoms: _556  and  _557
REMARK  228  A    between atoms: _562  and  _564
REMARK  229  A    between atoms: _564  and  _565
REMARK  230  A    between atoms: _564  and  _567
REMARK  231  A    between atoms: _567  and  _568
REMARK  232  A    between atoms: _571  and  _573
REMARK  233  A    between atoms: _573  and  _574
REMARK  234  A    between atoms: _576  and  _578
REMARK  235  A    between atoms: _578  and  _579
REMARK  236  A    between atoms: _582  and  _584
REMARK  237  A    between atoms: _584  and  _585
REMARK  238  A    between atoms: _584  and  _587
REMARK  239  A    between atoms: _587  and  _588
REMARK  240  A    between atoms: _593  and  _594
REMARK                            x       y       z     vdW  Elec       q    Type
REMARK                         _______ _______ _______ _____ _____    ______ ____
ROOT
ATOM      1  O   HOH     1      30.464  26.052  29.454  0.00  0.00    +0.000 OA
ENDROOT
TORSDOF 0
REMARK  Name = ../refined-set-2016/3sym/3sym_pocket.pdb
REMARK  240 active torsions:
REMARK  status: ('A' for Active; 'I' for Inactive)
REMARK    1  A    between atoms: _1  and  _3
REMARK    2  A    between atoms: _3  and  _4
REMARK    3  A    between atoms: _3  and  _6
REMARK    4  A    between atoms: _6  and  _7
REMARK    5  A    between atoms: _12  and  _13
REMARK    6  A    between atoms: _15  and  _17
REMARK    7  A    between atoms: _17  and  _18
REMARK    8  A    between atoms: _17  and  _20
REMARK    9  A    between atoms: _20  and  _21
REMARK   10  A    between atoms: _21  and  _22
REMARK   11  A    between atoms: _25  and  _27
REMARK   12  A    between atoms: _27  and  _28
REMARK   13  A    between atoms: _27  and  _30
REMARK   14  A    between atoms: _30  and  _31
REMARK   15  A    between atoms: _36  and  _37
REMARK   16  A    between atoms: _39  and  _41
REMARK   17  A    between atoms: _41  and  _42
REMARK   18  A    between atoms: _44  and  _46
REMARK   19  A    between atoms: _46  and  _47
REMARK   20  A    between atoms: _46  and  _49
REMARK   21  A    between atoms: _49  and  _50
REMARK   22  A    between atoms: _55  and  _57
REMARK   23  A    between atoms: _57  and  _58
REMARK   24  A    between atoms: _60  and  _62
REMARK   25  A    between atoms: _62  and  _63
REMARK   26  A    between atoms: _65  and  _67
REMARK   27  A    between atoms: _67  and  _68
REMARK   28  A    between atoms: _67  and  _70
REMARK   29  A    between atoms: _70  and  _71
REMARK   30  A    between atoms: _74  and  _76
REMARK   31  A    between atoms: _76  and  _77
REMARK   32  A    between atoms: _79  and  _81
REMARK   33  A    between atoms: _81  and  _82
REMARK   34  A    between atoms: _81  and  _84
REMARK   35  A    between atoms: _85  and  _86
REMARK   36  A    between atoms: _86  and  _87
REMARK   37  A    between atoms: _96  and  _98
REMARK   38  A    between atoms: _98  and  _99
REMARK   39  A    between atoms: _98  and  _101
REMARK   40  A    between atoms: _101  and  _102
REMARK   41  A    between atoms: _105  and  _107
REMARK   42  A    between atoms: _107  and  _108
REMARK   43  A    between atoms: _111  and  _113
REMARK   44  A    between atoms: _113  and  _114
REMARK   45  A    between atoms: _113  and  _116
REMARK   46  A    between atoms: _116  and  _117
REMARK   47  A    between atoms: _123  and  _125
REMARK   48  A    between atoms: _125  and  _126
REMARK   49  A    between atoms: _125  and  _128
REMARK   50  A    between atoms: _128  and  _129
REMARK   51  A    between atoms: _134  and  _136
REMARK   52  A    between atoms: _136  and  _137
REMARK   53  A    between atoms: _136  and  _139
REMARK   54  A    between atoms: _139  and  _140
REMARK   55  A    between atoms: _143  and  _145
REMARK   56  A    between atoms: _145  and  _146
REMARK   57  A    between atoms: _145  and  _148
REMARK   58  A    between atoms: _148  and  _149
REMARK   59  A    between atoms: _154  and  _156
REMARK   60  A    between atoms: _156  and  _157
REMARK   61  A    between atoms: _156  and  _159
REMARK   62  A    between atoms: _159  and  _160
REMARK   63  A    between atoms: _166  and  _168
REMARK   64  A    between atoms: _168  and  _169
REMARK   65  A    between atoms: _168  and  _171
REMARK   66  A    between atoms: _171  and  _172
REMARK   67  A    between atoms: _178  and  _180
REMARK   68  A    between atoms: _180  and  _181
REMARK   69  A    between atoms: _180  and  _183
REMARK   70  A    between atoms: _183  and  _184
REMARK   71  A    between atoms: _184  and  _185
REMARK   72  A    between atoms: _185  and  _186
REMARK   73  A    between atoms: _195  and  _197
REMARK   74  A    between atoms: _197  and  _198
REMARK   75  A    between atoms: _197  and  _200
REMARK   76  A    between atoms: _200  and  _201
REMARK   77  A    between atoms: _206  and  _208
REMARK   78  A    between atoms: _208  and  _209
REMARK   79  A    between atoms: _208  and  _211
REMARK   80  A    between atoms: _211  and  _212
REMARK   81  A    between atoms: _215  and  _217
REMARK   82  A    between atoms: _217  and  _218
REMARK   83  A    between atoms: _217  and  _220
REMARK   84  A    between atoms: _220  and  _221
REMARK   85  A    between atoms: _224  and  _226
REMARK   86  A    between atoms: _226  and  _227
REMARK   87  A    between atoms: _226  and  _229
REMARK   88  A    between atoms: _229  and  _230
REMARK   89  A    between atoms: _235  and  _237
REMARK   90  A    between atoms: _237  and  _238
REMARK   91  A    between atoms: _237  and  _240
REMARK   92  A    between atoms: _240  and  _241
REMARK   93  A    between atoms: _244  and  _246
REMARK   94  A    between atoms: _246  and  _247
REMARK   95  A    between atoms: _246  and  _249
REMARK   96  A    between atoms: _249  and  _250
REMARK   97  A    between atoms: _255  and  _257
REMARK   98  A    between atoms: _257  and  _258
REMARK   99  A    between atoms: _257  and  _260
REMARK  100  A    between atoms: _260  and  _261
REMARK  101  A    between atoms: _266  and  _268
REMARK  102  A    between atoms: _268  and  _269
REMARK  103  A    between atoms: _268  and  _271
REMARK  104  A    between atoms: _271  and  _272
REMARK  105  A    between atoms: _275  and  _277
REMARK  106  A    between atoms: _277  and  _278
REMARK  107  A    between atoms: _277  and  _280
REMARK  108  A    between atoms: _283  and  _285
REMARK  109  A    between atoms: _285  and  _286
REMARK  110  A    between atoms: _285  and  _288
REMARK  111  A    between atoms: _288  and  _289
REMARK  112  A    between atoms: _292  and  _294
REMARK  113  A    between atoms: _294  and  _295
REMARK  114  A    between atoms: _298  and  _300
REMARK  115  A    between atoms: _300  and  _301
REMARK  116  A    between atoms: _300  and  _303
REMARK  117  A    between atoms: _303  and  _304
REMARK  118  A    between atoms: _307  and  _309
REMARK  119  A    between atoms: _309  and  _310
REMARK  120  A    between atoms: _309  and  _312
REMARK  121  A    between atoms: _312  and  _313
REMARK  122  A    between atoms: _318  and  _320
REMARK  123  A    between atoms: _320  and  _321
REMARK  124  A    between atoms: _323  and  _325
REMARK  125  A    between atoms: _325  and  _326
REMARK  126  A    between atoms: _325  and  _328
REMARK  127  A    between atoms: _331  and  _333
REMARK  128  A    between atoms: _333  and  _334
REMARK  129  A    between atoms: _337  and  _339
REMARK  130  A    between atoms: _339  and  _340
REMARK  131  A    between atoms: _339  and  _342
REMARK  132  A    between atoms: _342  and  _343
REMARK  133  A    between atoms: _348  and  _350
REMARK  134  A    between atoms: _350  and  _351
REMARK  135  A    between atoms: _350  and  _353
REMARK  136  A    between atoms: _353  and  _354
REMARK  137  A    between atoms: _354  and  _355
REMARK  138  A    between atoms: _355  and  _356
REMARK  139  A    between atoms: _356  and  _357
REMARK  140  A    between atoms: _361  and  _363
REMARK  141  A    between atoms: _363  and  _364
REMARK  142  A    between atoms: _363  and  _366
REMARK  143  A    between atoms: _366  and  _367
REMARK  144  A    between atoms: _370  and  _372
REMARK  145  A    between atoms: _372  and  _373
REMARK  146  A    between atoms: _372  and  _375
REMARK  147  A    between atoms: _375  and  _376
REMARK  148  A    between atoms: _381  and  _383
REMARK  149  A    between atoms: _383  and  _384
REMARK  150  A    between atoms: _386  and  _388
REMARK  151  A    between atoms: _388  and  _389
REMARK  152  A    between atoms: _388  and  _391
REMARK  153  A    between atoms: _391  and  _392
REMARK  154  A    between atoms: _392  and  _393
REMARK  155  A    between atoms: _393  and  _394
REMARK  156  A    between atoms: _394  and  _395
REMARK  157  A    between atoms: _399  and  _401
REMARK  158  A    between atoms: _401  and  _402
REMARK  159  A    between atoms: _401  and  _404
REMARK  160  A    between atoms: _404  and  _405
REMARK  161  A    between atoms: _405  and  _406
REMARK  162  A    between atoms: _406  and  _407
REMARK  163  A    between atoms: _416  and  _418
REMARK  164  A    between atoms: _418  and  _419
REMARK  165  A    between atoms: _418  and  _421
REMARK  166  A    between atoms: _421  and  _422
REMARK  167  A    between atoms: _427  and  _428
REMARK  168  A    between atoms: _430  and  _432
REMARK  169  A    between atoms: _432  and  _433
REMARK  170  A    between atoms: _432  and  _435
REMARK  171  A    between atoms: _435  and  _436
REMARK  172  A    between atoms: _436  and  _437
REMARK  173  A    between atoms: _437  and  _438
REMARK  174  A    between atoms: _438  and  _439
REMARK  175  A    between atoms: _443  and  _445
REMARK  176  A    between atoms: _445  and  _446
REMARK  177  A    between atoms: _445  and  _448
REMARK  178  A    between atoms: _448  and  _449
REMARK  179  A    between atoms: _449  and  _450
REMARK  180  A    between atoms: _455  and  _457
REMARK  181  A    between atoms: _457  and  _458
REMARK  182  A    between atoms: _457  and  _460
REMARK  183  A    between atoms: _460  and  _461
REMARK  184  A    between atoms: _463  and  _465
REMARK  185  A    between atoms: _465  and  _466
REMARK  186  A    between atoms: _465  and  _468
REMARK  187  A    between atoms: _468  and  _469
REMARK  188  A    between atoms: _472  and  _474
REMARK  189  A    between atoms: _474  and  _475
REMARK  190  A    between atoms: _474  and  _477
REMARK  191  A    between atoms: _477  and  _478
REMARK  192  A    between atoms: _478  and  _479
REMARK  193  A    between atoms: _482  and  _484
REMARK  194  A    between atoms: _484  and  _485
REMARK  195  A    between atoms: _488  and  _490
REMARK  196  A    between atoms: _490  and  _491
REMARK  197  A    between atoms: _490  and  _493
REMARK  198  A    between atoms: _493  and  _494
REMARK  199  A    between atoms: _496  and  _498
REMARK  200  A    between atoms: _498  and  _499
REMARK  201  A    between atoms: _501  and  _503
REMARK  202  A    between atoms: _503  and  _504
REMARK  203  A    between atoms: _503  and  _506
REMARK  204  A    between atoms: _506  and  _507
REMARK  205  A    between atoms: _510  and  _512
REMARK  206  A    between atoms: _512  and  _513
REMARK  207  A    between atoms: _515  and  _517
REMARK  208  A    between atoms: _517  and  _518
REMARK  209  A    between atoms: _517  and  _520
REMARK  210  A    between atoms: _520  and  _521
REMARK  211  A    between atoms: _526  and  _528
REMARK  212  A    between atoms: _528  and  _529
REMARK  213  A    between atoms: _528  and  _531
REMARK  214  A    between atoms: _531  and  _532
REMARK  215  A    between atoms: _532  and  _533
REMARK  216  A    between atoms: _540  and  _541
REMARK  217  A    between atoms: _541  and  _557
REMARK  218  A    between atoms: _542  and  _544
REMARK  219  A    between atoms: _544  and  _545
REMARK  220  A    between atoms: _545  and  _546
REMARK  221  A    between atoms: _550  and  _552
REMARK  222  A    between atoms: _552  and  _553
REMARK  223  A    between atoms: _552  and  _560
REMARK  224  A    between atoms: _553  and  _554
REMARK  225  A    between atoms: _554  and  _555
REMARK  226  A    between atoms: _555  and  _556
REMARK  227  A    between atoms: _556  and  _557
REMARK  228  A    between atoms: _562  and  _564
REMARK  229  A    between atoms: _564  and  _565
REMARK  230  A    between atoms: _564  and  _567
REMARK  231  A    between atoms: _567  and  _568
REMARK  232  A    between atoms: _571  and  _573
REMARK  233  A    between atoms: _573  and  _574
REMARK  234  A    between atoms: _576  and  _578
REMARK  235  A    between atoms: _578  and  _579
REMARK  236  A    between atoms: _582  and  _584
REMARK  237  A    between atoms: _584  and  _585
REMARK  238  A    between atoms: _584  and  _587
REMARK  239  A    between atoms: _587  and  _588
REMARK  240  A    between atoms: _593  and  _594
REMARK                            x       y       z     vdW  Elec       q    Type
REMARK                         _______ _______ _______ _____ _____    ______ ____
ROOT
ATOM      1  O   HOH     1      28.247  27.189  27.766  0.00  0.00    +0.000 OA
ENDROOT
TORSDOF 0
REMARK  Name = ../refined-set-2016/3sym/3sym_pocket.pdb
REMARK  240 active torsions:
REMARK  status: ('A' for Active; 'I' for Inactive)
REMARK    1  A    between atoms: _1  and  _3
REMARK    2  A    between atoms: _3  and  _4
REMARK    3  A    between atoms: _3  and  _6
REMARK    4  A    between atoms: _6  and  _7
REMARK    5  A    between atoms: _12  and  _13
REMARK    6  A    between atoms: _15  and  _17
REMARK    7  A    between atoms: _17  and  _18
REMARK    8  A    between atoms: _17  and  _20
REMARK    9  A    between atoms: _20  and  _21
REMARK   10  A    between atoms: _21  and  _22
REMARK   11  A    between atoms: _25  and  _27
REMARK   12  A    between atoms: _27  and  _28
REMARK   13  A    between atoms: _27  and  _30
REMARK   14  A    between atoms: _30  and  _31
REMARK   15  A    between atoms: _36  and  _37
REMARK   16  A    between atoms: _39  and  _41
REMARK   17  A    between atoms: _41  and  _42
REMARK   18  A    between atoms: _44  and  _46
REMARK   19  A    between atoms: _46  and  _47
REMARK   20  A    between atoms: _46  and  _49
REMARK   21  A    between atoms: _49  and  _50
REMARK   22  A    between atoms: _55  and  _57
REMARK   23  A    between atoms: _57  and  _58
REMARK   24  A    between atoms: _60  and  _62
REMARK   25  A    between atoms: _62  and  _63
REMARK   26  A    between atoms: _65  and  _67
REMARK   27  A    between atoms: _67  and  _68
REMARK   28  A    between atoms: _67  and  _70
REMARK   29  A    between atoms: _70  and  _71
REMARK   30  A    between atoms: _74  and  _76
REMARK   31  A    between atoms: _76  and  _77
REMARK   32  A    between atoms: _79  and  _81
REMARK   33  A    between atoms: _81  and  _82
REMARK   34  A    between atoms: _81  and  _84
REMARK   35  A    between atoms: _85  and  _86
REMARK   36  A    between atoms: _86  and  _87
REMARK   37  A    between atoms: _96  and  _98
REMARK   38  A    between atoms: _98  and  _99
REMARK   39  A    between atoms: _98  and  _101
REMARK   40  A    between atoms: _101  and  _102
REMARK   41  A    between atoms: _105  and  _107
REMARK   42  A    between atoms: _107  and  _108
REMARK   43  A    between atoms: _111  and  _113
REMARK   44  A    between atoms: _113  and  _114
REMARK   45  A    between atoms: _113  and  _116
REMARK   46  A    between atoms: _116  and  _117
REMARK   47  A    between atoms: _123  and  _125
REMARK   48  A    between atoms: _125  and  _126
REMARK   49  A    between atoms: _125  and  _128
REMARK   50  A    between atoms: _128  and  _129
REMARK   51  A    between atoms: _134  and  _136
REMARK   52  A    between atoms: _136  and  _137
REMARK   53  A    between atoms: _136  and  _139
REMARK   54  A    between atoms: _139  and  _140
REMARK   55  A    between atoms: _143  and  _145
REMARK   56  A    between atoms: _145  and  _146
REMARK   57  A    between atoms: _145  and  _148
REMARK   58  A    between atoms: _148  and  _149
REMARK   59  A    between atoms: _154  and  _156
REMARK   60  A    between atoms: _156  and  _157
REMARK   61  A    between atoms: _156  and  _159
REMARK   62  A    between atoms: _159  and  _160
REMARK   63  A    between atoms: _166  and  _168
REMARK   64  A    between atoms: _168  and  _169
REMARK   65  A    between atoms: _168  and  _171
REMARK   66  A    between atoms: _171  and  _172
REMARK   67  A    between atoms: _178  and  _180
REMARK   68  A    between atoms: _180  and  _181
REMARK   69  A    between atoms: _180  and  _183
REMARK   70  A    between atoms: _183  and  _184
REMARK   71  A    between atoms: _184  and  _185
REMARK   72  A    between atoms: _185  and  _186
REMARK   73  A    between atoms: _195  and  _197
REMARK   74  A    between atoms: _197  and  _198
REMARK   75  A    between atoms: _197  and  _200
REMARK   76  A    between atoms: _200  and  _201
REMARK   77  A    between atoms: _206  and  _208
REMARK   78  A    between atoms: _208  and  _209
REMARK   79  A    between atoms: _208  and  _211
REMARK   80  A    between atoms: _211  and  _212
REMARK   81  A    between atoms: _215  and  _217
REMARK   82  A    between atoms: _217  and  _218
REMARK   83  A    between atoms: _217  and  _220
REMARK   84  A    between atoms: _220  and  _221
REMARK   85  A    between atoms: _224  and  _226
REMARK   86  A    between atoms: _226  and  _227
REMARK   87  A    between atoms: _226  and  _229
REMARK   88  A    between atoms: _229  and  _230
REMARK   89  A    between atoms: _235  and  _237
REMARK   90  A    between atoms: _237  and  _238
REMARK   91  A    between atoms: _237  and  _240
REMARK   92  A    between atoms: _240  and  _241
REMARK   93  A    between atoms: _244  and  _246
REMARK   94  A    between atoms: _246  and  _247
REMARK   95  A    between atoms: _246  and  _249
REMARK   96  A    between atoms: _249  and  _250
REMARK   97  A    between atoms: _255  and  _257
REMARK   98  A    between atoms: _257  and  _258
REMARK   99  A    between atoms: _257  and  _260
REMARK  100  A    between atoms: _260  and  _261
REMARK  101  A    between atoms: _266  and  _268
REMARK  102  A    between atoms: _268  and  _269
REMARK  103  A    between atoms: _268  and  _271
REMARK  104  A    between atoms: _271  and  _272
REMARK  105  A    between atoms: _275  and  _277
REMARK  106  A    between atoms: _277  and  _278
REMARK  107  A    between atoms: _277  and  _280
REMARK  108  A    between atoms: _283  and  _285
REMARK  109  A    between atoms: _285  and  _286
REMARK  110  A    between atoms: _285  and  _288
REMARK  111  A    between atoms: _288  and  _289
REMARK  112  A    between atoms: _292  and  _294
REMARK  113  A    between atoms: _294  and  _295
REMARK  114  A    between atoms: _298  and  _300
REMARK  115  A    between atoms: _300  and  _301
REMARK  116  A    between atoms: _300  and  _303
REMARK  117  A    between atoms: _303  and  _304
REMARK  118  A    between atoms: _307  and  _309
REMARK  119  A    between atoms: _309  and  _310
REMARK  120  A    between atoms: _309  and  _312
REMARK  121  A    between atoms: _312  and  _313
REMARK  122  A    between atoms: _318  and  _320
REMARK  123  A    between atoms: _320  and  _321
REMARK  124  A    between atoms: _323  and  _325
REMARK  125  A    between atoms: _325  and  _326
REMARK  126  A    between atoms: _325  and  _328
REMARK  127  A    between atoms: _331  and  _333
REMARK  128  A    between atoms: _333  and  _334
REMARK  129  A    between atoms: _337  and  _339
REMARK  130  A    between atoms: _339  and  _340
REMARK  131  A    between atoms: _339  and  _342
REMARK  132  A    between atoms: _342  and  _343
REMARK  133  A    between atoms: _348  and  _350
REMARK  134  A    between atoms: _350  and  _351
REMARK  135  A    between atoms: _350  and  _353
REMARK  136  A    between atoms: _353  and  _354
REMARK  137  A    between atoms: _354  and  _355
REMARK  138  A    between atoms: _355  and  _356
REMARK  139  A    between atoms: _356  and  _357
REMARK  140  A    between atoms: _361  and  _363
REMARK  141  A    between atoms: _363  and  _364
REMARK  142  A    between atoms: _363  and  _366
REMARK  143  A    between atoms: _366  and  _367
REMARK  144  A    between atoms: _370  and  _372
REMARK  145  A    between atoms: _372  and  _373
REMARK  146  A    between atoms: _372  and  _375
REMARK  147  A    between atoms: _375  and  _376
REMARK  148  A    between atoms: _381  and  _383
REMARK  149  A    between atoms: _383  and  _384
REMARK  150  A    between atoms: _386  and  _388
REMARK  151  A    between atoms: _388  and  _389
REMARK  152  A    between atoms: _388  and  _391
REMARK  153  A    between atoms: _391  and  _392
REMARK  154  A    between atoms: _392  and  _393
REMARK  155  A    between atoms: _393  and  _394
REMARK  156  A    between atoms: _394  and  _395
REMARK  157  A    between atoms: _399  and  _401
REMARK  158  A    between atoms: _401  and  _402
REMARK  159  A    between atoms: _401  and  _404
REMARK  160  A    between atoms: _404  and  _405
REMARK  161  A    between atoms: _405  and  _406
REMARK  162  A    between atoms: _406  and  _407
REMARK  163  A    between atoms: _416  and  _418
REMARK  164  A    between atoms: _418  and  _419
REMARK  165  A    between atoms: _418  and  _421
REMARK  166  A    between atoms: _421  and  _422
REMARK  167  A    between atoms: _427  and  _428
REMARK  168  A    between atoms: _430  and  _432
REMARK  169  A    between atoms: _432  and  _433
REMARK  170  A    between atoms: _432  and  _435
REMARK  171  A    between atoms: _435  and  _436
REMARK  172  A    between atoms: _436  and  _437
REMARK  173  A    between atoms: _437  and  _438
REMARK  174  A    between atoms: _438  and  _439
REMARK  175  A    between atoms: _443  and  _445
REMARK  176  A    between atoms: _445  and  _446
REMARK  177  A    between atoms: _445  and  _448
REMARK  178  A    between atoms: _448  and  _449
REMARK  179  A    between atoms: _449  and  _450
REMARK  180  A    between atoms: _455  and  _457
REMARK  181  A    between atoms: _457  and  _458
REMARK  182  A    between atoms: _457  and  _460
REMARK  183  A    between atoms: _460  and  _461
REMARK  184  A    between atoms: _463  and  _465
REMARK  185  A    between atoms: _465  and  _466
REMARK  186  A    between atoms: _465  and  _468
REMARK  187  A    between atoms: _468  and  _469
REMARK  188  A    between atoms: _472  and  _474
REMARK  189  A    between atoms: _474  and  _475
REMARK  190  A    between atoms: _474  and  _477
REMARK  191  A    between atoms: _477  and  _478
REMARK  192  A    between atoms: _478  and  _479
REMARK  193  A    between atoms: _482  and  _484
REMARK  194  A    between atoms: _484  and  _485
REMARK  195  A    between atoms: _488  and  _490
REMARK  196  A    between atoms: _490  and  _491
REMARK  197  A    between atoms: _490  and  _493
REMARK  198  A    between atoms: _493  and  _494
REMARK  199  A    between atoms: _496  and  _498
REMARK  200  A    between atoms: _498  and  _499
REMARK  201  A    between atoms: _501  and  _503
REMARK  202  A    between atoms: _503  and  _504
REMARK  203  A    between atoms: _503  and  _506
REMARK  204  A    between atoms: _506  and  _507
REMARK  205  A    between atoms: _510  and  _512
REMARK  206  A    between atoms: _512  and  _513
REMARK  207  A    between atoms: _515  and  _517
REMARK  208  A    between atoms: _517  and  _518
REMARK  209  A    between atoms: _517  and  _520
REMARK  210  A    between atoms: _520  and  _521
REMARK  211  A    between atoms: _526  and  _528
REMARK  212  A    between atoms: _528  and  _529
REMARK  213  A    between atoms: _528  and  _531
REMARK  214  A    between atoms: _531  and  _532
REMARK  215  A    between atoms: _532  and  _533
REMARK  216  A    between atoms: _540  and  _541
REMARK  217  A    between atoms: _541  and  _557
REMARK  218  A    between atoms: _542  and  _544
REMARK  219  A    between atoms: _544  and  _545
REMARK  220  A    between atoms: _545  and  _546
REMARK  221  A    between atoms: _550  and  _552
REMARK  222  A    between atoms: _552  and  _553
REMARK  223  A    between atoms: _552  and  _560
REMARK  224  A    between atoms: _553  and  _554
REMARK  225  A    between atoms: _554  and  _555
REMARK  226  A    between atoms: _555  and  _556
REMARK  227  A    between atoms: _556  and  _557
REMARK  228  A    between atoms: _562  and  _564
REMARK  229  A    between atoms: _564  and  _565
REMARK  230  A    between atoms: _564  and  _567
REMARK  231  A    between atoms: _567  and  _568
REMARK  232  A    between atoms: _571  and  _573
REMARK  233  A    between atoms: _573  and  _574
REMARK  234  A    between atoms: _576  and  _578
REMARK  235  A    between atoms: _578  and  _579
REMARK  236  A    between atoms: _582  and  _584
REMARK  237  A    between atoms: _584  and  _585
REMARK  238  A    between atoms: _584  and  _587
REMARK  239  A    between atoms: _587  and  _588
REMARK  240  A    between atoms: _593  and  _594
REMARK                            x       y       z     vdW  Elec       q    Type
REMARK                         _______ _______ _______ _____ _____    ______ ____
ROOT
ATOM      1  O   HOH     1      26.748  23.322  21.900  0.00  0.00    +0.000 OA
ENDROOT
TORSDOF 0
REMARK  Name = ../refined-set-2016/3sym/3sym_pocket.pdb
REMARK  240 active torsions:
REMARK  status: ('A' for Active; 'I' for Inactive)
REMARK    1  A    between atoms: _1  and  _3
REMARK    2  A    between atoms: _3  and  _4
REMARK    3  A    between atoms: _3  and  _6
REMARK    4  A    between atoms: _6  and  _7
REMARK    5  A    between atoms: _12  and  _13
REMARK    6  A    between atoms: _15  and  _17
REMARK    7  A    between atoms: _17  and  _18
REMARK    8  A    between atoms: _17  and  _20
REMARK    9  A    between atoms: _20  and  _21
REMARK   10  A    between atoms: _21  and  _22
REMARK   11  A    between atoms: _25  and  _27
REMARK   12  A    between atoms: _27  and  _28
REMARK   13  A    between atoms: _27  and  _30
REMARK   14  A    between atoms: _30  and  _31
REMARK   15  A    between atoms: _36  and  _37
REMARK   16  A    between atoms: _39  and  _41
REMARK   17  A    between atoms: _41  and  _42
REMARK   18  A    between atoms: _44  and  _46
REMARK   19  A    between atoms: _46  and  _47
REMARK   20  A    between atoms: _46  and  _49
REMARK   21  A    between atoms: _49  and  _50
REMARK   22  A    between atoms: _55  and  _57
REMARK   23  A    between atoms: _57  and  _58
REMARK   24  A    between atoms: _60  and  _62
REMARK   25  A    between atoms: _62  and  _63
REMARK   26  A    between atoms: _65  and  _67
REMARK   27  A    between atoms: _67  and  _68
REMARK   28  A    between atoms: _67  and  _70
REMARK   29  A    between atoms: _70  and  _71
REMARK   30  A    between atoms: _74  and  _76
REMARK   31  A    between atoms: _76  and  _77
REMARK   32  A    between atoms: _79  and  _81
REMARK   33  A    between atoms: _81  and  _82
REMARK   34  A    between atoms: _81  and  _84
REMARK   35  A    between atoms: _85  and  _86
REMARK   36  A    between atoms: _86  and  _87
REMARK   37  A    between atoms: _96  and  _98
REMARK   38  A    between atoms: _98  and  _99
REMARK   39  A    between atoms: _98  and  _101
REMARK   40  A    between atoms: _101  and  _102
REMARK   41  A    between atoms: _105  and  _107
REMARK   42  A    between atoms: _107  and  _108
REMARK   43  A    between atoms: _111  and  _113
REMARK   44  A    between atoms: _113  and  _114
REMARK   45  A    between atoms: _113  and  _116
REMARK   46  A    between atoms: _116  and  _117
REMARK   47  A    between atoms: _123  and  _125
REMARK   48  A    between atoms: _125  and  _126
REMARK   49  A    between atoms: _125  and  _128
REMARK   50  A    between atoms: _128  and  _129
REMARK   51  A    between atoms: _134  and  _136
REMARK   52  A    between atoms: _136  and  _137
REMARK   53  A    between atoms: _136  and  _139
REMARK   54  A    between atoms: _139  and  _140
REMARK   55  A    between atoms: _143  and  _145
REMARK   56  A    between atoms: _145  and  _146
REMARK   57  A    between atoms: _145  and  _148
REMARK   58  A    between atoms: _148  and  _149
REMARK   59  A    between atoms: _154  and  _156
REMARK   60  A    between atoms: _156  and  _157
REMARK   61  A    between atoms: _156  and  _159
REMARK   62  A    between atoms: _159  and  _160
REMARK   63  A    between atoms: _166  and  _168
REMARK   64  A    between atoms: _168  and  _169
REMARK   65  A    between atoms: _168  and  _171
REMARK   66  A    between atoms: _171  and  _172
REMARK   67  A    between atoms: _178  and  _180
REMARK   68  A    between atoms: _180  and  _181
REMARK   69  A    between atoms: _180  and  _183
REMARK   70  A    between atoms: _183  and  _184
REMARK   71  A    between atoms: _184  and  _185
REMARK   72  A    between atoms: _185  and  _186
REMARK   73  A    between atoms: _195  and  _197
REMARK   74  A    between atoms: _197  and  _198
REMARK   75  A    between atoms: _197  and  _200
REMARK   76  A    between atoms: _200  and  _201
REMARK   77  A    between atoms: _206  and  _208
REMARK   78  A    between atoms: _208  and  _209
REMARK   79  A    between atoms: _208  and  _211
REMARK   80  A    between atoms: _211  and  _212
REMARK   81  A    between atoms: _215  and  _217
REMARK   82  A    between atoms: _217  and  _218
REMARK   83  A    between atoms: _217  and  _220
REMARK   84  A    between atoms: _220  and  _221
REMARK   85  A    between atoms: _224  and  _226
REMARK   86  A    between atoms: _226  and  _227
REMARK   87  A    between atoms: _226  and  _229
REMARK   88  A    between atoms: _229  and  _230
REMARK   89  A    between atoms: _235  and  _237
REMARK   90  A    between atoms: _237  and  _238
REMARK   91  A    between atoms: _237  and  _240
REMARK   92  A    between atoms: _240  and  _241
REMARK   93  A    between atoms: _244  and  _246
REMARK   94  A    between atoms: _246  and  _247
REMARK   95  A    between atoms: _246  and  _249
REMARK   96  A    between atoms: _249  and  _250
REMARK   97  A    between atoms: _255  and  _257
REMARK   98  A    between atoms: _257  and  _258
REMARK   99  A    between atoms: _257  and  _260
REMARK  100  A    between atoms: _260  and  _261
REMARK  101  A    between atoms: _266  and  _268
REMARK  102  A    between atoms: _268  and  _269
REMARK  103  A    between atoms: _268  and  _271
REMARK  104  A    between atoms: _271  and  _272
REMARK  105  A    between atoms: _275  and  _277
REMARK  106  A    between atoms: _277  and  _278
REMARK  107  A    between atoms: _277  and  _280
REMARK  108  A    between atoms: _283  and  _285
REMARK  109  A    between atoms: _285  and  _286
REMARK  110  A    between atoms: _285  and  _288
REMARK  111  A    between atoms: _288  and  _289
REMARK  112  A    between atoms: _292  and  _294
REMARK  113  A    between atoms: _294  and  _295
REMARK  114  A    between atoms: _298  and  _300
REMARK  115  A    between atoms: _300  and  _301
REMARK  116  A    between atoms: _300  and  _303
REMARK  117  A    between atoms: _303  and  _304
REMARK  118  A    between atoms: _307  and  _309
REMARK  119  A    between atoms: _309  and  _310
REMARK  120  A    between atoms: _309  and  _312
REMARK  121  A    between atoms: _312  and  _313
REMARK  122  A    between atoms: _318  and  _320
REMARK  123  A    between atoms: _320  and  _321
REMARK  124  A    between atoms: _323  and  _325
REMARK  125  A    between atoms: _325  and  _326
REMARK  126  A    between atoms: _325  and  _328
REMARK  127  A    between atoms: _331  and  _333
REMARK  128  A    between atoms: _333  and  _334
REMARK  129  A    between atoms: _337  and  _339
REMARK  130  A    between atoms: _339  and  _340
REMARK  131  A    between atoms: _339  and  _342
REMARK  132  A    between atoms: _342  and  _343
REMARK  133  A    between atoms: _348  and  _350
REMARK  134  A    between atoms: _350  and  _351
REMARK  135  A    between atoms: _350  and  _353
REMARK  136  A    between atoms: _353  and  _354
REMARK  137  A    between atoms: _354  and  _355
REMARK  138  A    between atoms: _355  and  _356
REMARK  139  A    between atoms: _356  and  _357
REMARK  140  A    between atoms: _361  and  _363
REMARK  141  A    between atoms: _363  and  _364
REMARK  142  A    between atoms: _363  and  _366
REMARK  143  A    between atoms: _366  and  _367
REMARK  144  A    between atoms: _370  and  _372
REMARK  145  A    between atoms: _372  and  _373
REMARK  146  A    between atoms: _372  and  _375
REMARK  147  A    between atoms: _375  and  _376
REMARK  148  A    between atoms: _381  and  _383
REMARK  149  A    between atoms: _383  and  _384
REMARK  150  A    between atoms: _386  and  _388
REMARK  151  A    between atoms: _388  and  _389
REMARK  152  A    between atoms: _388  and  _391
REMARK  153  A    between atoms: _391  and  _392
REMARK  154  A    between atoms: _392  and  _393
REMARK  155  A    between atoms: _393  and  _394
REMARK  156  A    between atoms: _394  and  _395
REMARK  157  A    between atoms: _399  and  _401
REMARK  158  A    between atoms: _401  and  _402
REMARK  159  A    between atoms: _401  and  _404
REMARK  160  A    between atoms: _404  and  _405
REMARK  161  A    between atoms: _405  and  _406
REMARK  162  A    between atoms: _406  and  _407
REMARK  163  A    between atoms: _416  and  _418
REMARK  164  A    between atoms: _418  and  _419
REMARK  165  A    between atoms: _418  and  _421
REMARK  166  A    between atoms: _421  and  _422
REMARK  167  A    between atoms: _427  and  _428
REMARK  168  A    between atoms: _430  and  _432
REMARK  169  A    between atoms: _432  and  _433
REMARK  170  A    between atoms: _432  and  _435
REMARK  171  A    between atoms: _435  and  _436
REMARK  172  A    between atoms: _436  and  _437
REMARK  173  A    between atoms: _437  and  _438
REMARK  174  A    between atoms: _438  and  _439
REMARK  175  A    between atoms: _443  and  _445
REMARK  176  A    between atoms: _445  and  _446
REMARK  177  A    between atoms: _445  and  _448
REMARK  178  A    between atoms: _448  and  _449
REMARK  179  A    between atoms: _449  and  _450
REMARK  180  A    between atoms: _455  and  _457
REMARK  181  A    between atoms: _457  and  _458
REMARK  182  A    between atoms: _457  and  _460
REMARK  183  A    between atoms: _460  and  _461
REMARK  184  A    between atoms: _463  and  _465
REMARK  185  A    between atoms: _465  and  _466
REMARK  186  A    between atoms: _465  and  _468
REMARK  187  A    between atoms: _468  and  _469
REMARK  188  A    between atoms: _472  and  _474
REMARK  189  A    between atoms: _474  and  _475
REMARK  190  A    between atoms: _474  and  _477
REMARK  191  A    between atoms: _477  and  _478
REMARK  192  A    between atoms: _478  and  _479
REMARK  193  A    between atoms: _482  and  _484
REMARK  194  A    between atoms: _484  and  _485
REMARK  195  A    between atoms: _488  and  _490
REMARK  196  A    between atoms: _490  and  _491
REMARK  197  A    between atoms: _490  and  _493
REMARK  198  A    between atoms: _493  and  _494
REMARK  199  A    between atoms: _496  and  _498
REMARK  200  A    between atoms: _498  and  _499
REMARK  201  A    between atoms: _501  and  _503
REMARK  202  A    between atoms: _503  and  _504
REMARK  203  A    between atoms: _503  and  _506
REMARK  204  A    between atoms: _506  and  _507
REMARK  205  A    between atoms: _510  and  _512
REMARK  206  A    between atoms: _512  and  _513
REMARK  207  A    between atoms: _515  and  _517
REMARK  208  A    between atoms: _517  and  _518
REMARK  209  A    between atoms: _517  and  _520
REMARK  210  A    between atoms: _520  and  _521
REMARK  211  A    between atoms: _526  and  _528
REMARK  212  A    between atoms: _528  and  _529
REMARK  213  A    between atoms: _528  and  _531
REMARK  214  A    between atoms: _531  and  _532
REMARK  215  A    between atoms: _532  and  _533
REMARK  216  A    between atoms: _540  and  _541
REMARK  217  A    between atoms: _541  and  _557
REMARK  218  A    between atoms: _542  and  _544
REMARK  219  A    between atoms: _544  and  _545
REMARK  220  A    between atoms: _545  and  _546
REMARK  221  A    between atoms: _550  and  _552
REMARK  222  A    between atoms: _552  and  _553
REMARK  223  A    between atoms: _552  and  _560
REMARK  224  A    between atoms: _553  and  _554
REMARK  225  A    between atoms: _554  and  _555
REMARK  226  A    between atoms: _555  and  _556
REMARK  227  A    between atoms: _556  and  _557
REMARK  228  A    between atoms: _562  and  _564
REMARK  229  A    between atoms: _564  and  _565
REMARK  230  A    between atoms: _564  and  _567
REMARK  231  A    between atoms: _567  and  _568
REMARK  232  A    between atoms: _571  and  _573
REMARK  233  A    between atoms: _573  and  _574
REMARK  234  A    between atoms: _576  and  _578
REMARK  235  A    between atoms: _578  and  _579
REMARK  236  A    between atoms: _582  and  _584
REMARK  237  A    between atoms: _584  and  _585
REMARK  238  A    between atoms: _584  and  _587
REMARK  239  A    between atoms: _587  and  _588
REMARK  240  A    between atoms: _593  and  _594
REMARK                            x       y       z     vdW  Elec       q    Type
REMARK                         _______ _______ _______ _____ _____    ______ ____
ROOT
ATOM      1  O   HOH     1      34.993  12.734  31.272  0.00  0.00    +0.000 OA
ENDROOT
TORSDOF 0
REMARK  Name = ../refined-set-2016/3sym/3sym_pocket.pdb
REMARK  240 active torsions:
REMARK  status: ('A' for Active; 'I' for Inactive)
REMARK    1  A    between atoms: _1  and  _3
REMARK    2  A    between atoms: _3  and  _4
REMARK    3  A    between atoms: _3  and  _6
REMARK    4  A    between atoms: _6  and  _7
REMARK    5  A    between atoms: _12  and  _13
REMARK    6  A    between atoms: _15  and  _17
REMARK    7  A    between atoms: _17  and  _18
REMARK    8  A    between atoms: _17  and  _20
REMARK    9  A    between atoms: _20  and  _21
REMARK   10  A    between atoms: _21  and  _22
REMARK   11  A    between atoms: _25  and  _27
REMARK   12  A    between atoms: _27  and  _28
REMARK   13  A    between atoms: _27  and  _30
REMARK   14  A    between atoms: _30  and  _31
REMARK   15  A    between atoms: _36  and  _37
REMARK   16  A    between atoms: _39  and  _41
REMARK   17  A    between atoms: _41  and  _42
REMARK   18  A    between atoms: _44  and  _46
REMARK   19  A    between atoms: _46  and  _47
REMARK   20  A    between atoms: _46  and  _49
REMARK   21  A    between atoms: _49  and  _50
REMARK   22  A    between atoms: _55  and  _57
REMARK   23  A    between atoms: _57  and  _58
REMARK   24  A    between atoms: _60  and  _62
REMARK   25  A    between atoms: _62  and  _63
REMARK   26  A    between atoms: _65  and  _67
REMARK   27  A    between atoms: _67  and  _68
REMARK   28  A    between atoms: _67  and  _70
REMARK   29  A    between atoms: _70  and  _71
REMARK   30  A    between atoms: _74  and  _76
REMARK   31  A    between atoms: _76  and  _77
REMARK   32  A    between atoms: _79  and  _81
REMARK   33  A    between atoms: _81  and  _82
REMARK   34  A    between atoms: _81  and  _84
REMARK   35  A    between atoms: _85  and  _86
REMARK   36  A    between atoms: _86  and  _87
REMARK   37  A    between atoms: _96  and  _98
REMARK   38  A    between atoms: _98  and  _99
REMARK   39  A    between atoms: _98  and  _101
REMARK   40  A    between atoms: _101  and  _102
REMARK   41  A    between atoms: _105  and  _107
REMARK   42  A    between atoms: _107  and  _108
REMARK   43  A    between atoms: _111  and  _113
REMARK   44  A    between atoms: _113  and  _114
REMARK   45  A    between atoms: _113  and  _116
REMARK   46  A    between atoms: _116  and  _117
REMARK   47  A    between atoms: _123  and  _125
REMARK   48  A    between atoms: _125  and  _126
REMARK   49  A    between atoms: _125  and  _128
REMARK   50  A    between atoms: _128  and  _129
REMARK   51  A    between atoms: _134  and  _136
REMARK   52  A    between atoms: _136  and  _137
REMARK   53  A    between atoms: _136  and  _139
REMARK   54  A    between atoms: _139  and  _140
REMARK   55  A    between atoms: _143  and  _145
REMARK   56  A    between atoms: _145  and  _146
REMARK   57  A    between atoms: _145  and  _148
REMARK   58  A    between atoms: _148  and  _149
REMARK   59  A    between atoms: _154  and  _156
REMARK   60  A    between atoms: _156  and  _157
REMARK   61  A    between atoms: _156  and  _159
REMARK   62  A    between atoms: _159  and  _160
REMARK   63  A    between atoms: _166  and  _168
REMARK   64  A    between atoms: _168  and  _169
REMARK   65  A    between atoms: _168  and  _171
REMARK   66  A    between atoms: _171  and  _172
REMARK   67  A    between atoms: _178  and  _180
REMARK   68  A    between atoms: _180  and  _181
REMARK   69  A    between atoms: _180  and  _183
REMARK   70  A    between atoms: _183  and  _184
REMARK   71  A    between atoms: _184  and  _185
REMARK   72  A    between atoms: _185  and  _186
REMARK   73  A    between atoms: _195  and  _197
REMARK   74  A    between atoms: _197  and  _198
REMARK   75  A    between atoms: _197  and  _200
REMARK   76  A    between atoms: _200  and  _201
REMARK   77  A    between atoms: _206  and  _208
REMARK   78  A    between atoms: _208  and  _209
REMARK   79  A    between atoms: _208  and  _211
REMARK   80  A    between atoms: _211  and  _212
REMARK   81  A    between atoms: _215  and  _217
REMARK   82  A    between atoms: _217  and  _218
REMARK   83  A    between atoms: _217  and  _220
REMARK   84  A    between atoms: _220  and  _221
REMARK   85  A    between atoms: _224  and  _226
REMARK   86  A    between atoms: _226  and  _227
REMARK   87  A    between atoms: _226  and  _229
REMARK   88  A    between atoms: _229  and  _230
REMARK   89  A    between atoms: _235  and  _237
REMARK   90  A    between atoms: _237  and  _238
REMARK   91  A    between atoms: _237  and  _240
REMARK   92  A    between atoms: _240  and  _241
REMARK   93  A    between atoms: _244  and  _246
REMARK   94  A    between atoms: _246  and  _247
REMARK   95  A    between atoms: _246  and  _249
REMARK   96  A    between atoms: _249  and  _250
REMARK   97  A    between atoms: _255  and  _257
REMARK   98  A    between atoms: _257  and  _258
REMARK   99  A    between atoms: _257  and  _260
REMARK  100  A    between atoms: _260  and  _261
REMARK  101  A    between atoms: _266  and  _268
REMARK  102  A    between atoms: _268  and  _269
REMARK  103  A    between atoms: _268  and  _271
REMARK  104  A    between atoms: _271  and  _272
REMARK  105  A    between atoms: _275  and  _277
REMARK  106  A    between atoms: _277  and  _278
REMARK  107  A    between atoms: _277  and  _280
REMARK  108  A    between atoms: _283  and  _285
REMARK  109  A    between atoms: _285  and  _286
REMARK  110  A    between atoms: _285  and  _288
REMARK  111  A    between atoms: _288  and  _289
REMARK  112  A    between atoms: _292  and  _294
REMARK  113  A    between atoms: _294  and  _295
REMARK  114  A    between atoms: _298  and  _300
REMARK  115  A    between atoms: _300  and  _301
REMARK  116  A    between atoms: _300  and  _303
REMARK  117  A    between atoms: _303  and  _304
REMARK  118  A    between atoms: _307  and  _309
REMARK  119  A    between atoms: _309  and  _310
REMARK  120  A    between atoms: _309  and  _312
REMARK  121  A    between atoms: _312  and  _313
REMARK  122  A    between atoms: _318  and  _320
REMARK  123  A    between atoms: _320  and  _321
REMARK  124  A    between atoms: _323  and  _325
REMARK  125  A    between atoms: _325  and  _326
REMARK  126  A    between atoms: _325  and  _328
REMARK  127  A    between atoms: _331  and  _333
REMARK  128  A    between atoms: _333  and  _334
REMARK  129  A    between atoms: _337  and  _339
REMARK  130  A    between atoms: _339  and  _340
REMARK  131  A    between atoms: _339  and  _342
REMARK  132  A    between atoms: _342  and  _343
REMARK  133  A    between atoms: _348  and  _350
REMARK  134  A    between atoms: _350  and  _351
REMARK  135  A    between atoms: _350  and  _353
REMARK  136  A    between atoms: _353  and  _354
REMARK  137  A    between atoms: _354  and  _355
REMARK  138  A    between atoms: _355  and  _356
REMARK  139  A    between atoms: _356  and  _357
REMARK  140  A    between atoms: _361  and  _363
REMARK  141  A    between atoms: _363  and  _364
REMARK  142  A    between atoms: _363  and  _366
REMARK  143  A    between atoms: _366  and  _367
REMARK  144  A    between atoms: _370  and  _372
REMARK  145  A    between atoms: _372  and  _373
REMARK  146  A    between atoms: _372  and  _375
REMARK  147  A    between atoms: _375  and  _376
REMARK  148  A    between atoms: _381  and  _383
REMARK  149  A    between atoms: _383  and  _384
REMARK  150  A    between atoms: _386  and  _388
REMARK  151  A    between atoms: _388  and  _389
REMARK  152  A    between atoms: _388  and  _391
REMARK  153  A    between atoms: _391  and  _392
REMARK  154  A    between atoms: _392  and  _393
REMARK  155  A    between atoms: _393  and  _394
REMARK  156  A    between atoms: _394  and  _395
REMARK  157  A    between atoms: _399  and  _401
REMARK  158  A    between atoms: _401  and  _402
REMARK  159  A    between atoms: _401  and  _404
REMARK  160  A    between atoms: _404  and  _405
REMARK  161  A    between atoms: _405  and  _406
REMARK  162  A    between atoms: _406  and  _407
REMARK  163  A    between atoms: _416  and  _418
REMARK  164  A    between atoms: _418  and  _419
REMARK  165  A    between atoms: _418  and  _421
REMARK  166  A    between atoms: _421  and  _422
REMARK  167  A    between atoms: _427  and  _428
REMARK  168  A    between atoms: _430  and  _432
REMARK  169  A    between atoms: _432  and  _433
REMARK  170  A    between atoms: _432  and  _435
REMARK  171  A    between atoms: _435  and  _436
REMARK  172  A    between atoms: _436  and  _437
REMARK  173  A    between atoms: _437  and  _438
REMARK  174  A    between atoms: _438  and  _439
REMARK  175  A    between atoms: _443  and  _445
REMARK  176  A    between atoms: _445  and  _446
REMARK  177  A    between atoms: _445  and  _448
REMARK  178  A    between atoms: _448  and  _449
REMARK  179  A    between atoms: _449  and  _450
REMARK  180  A    between atoms: _455  and  _457
REMARK  181  A    between atoms: _457  and  _458
REMARK  182  A    between atoms: _457  and  _460
REMARK  183  A    between atoms: _460  and  _461
REMARK  184  A    between atoms: _463  and  _465
REMARK  185  A    between atoms: _465  and  _466
REMARK  186  A    between atoms: _465  and  _468
REMARK  187  A    between atoms: _468  and  _469
REMARK  188  A    between atoms: _472  and  _474
REMARK  189  A    between atoms: _474  and  _475
REMARK  190  A    between atoms: _474  and  _477
REMARK  191  A    between atoms: _477  and  _478
REMARK  192  A    between atoms: _478  and  _479
REMARK  193  A    between atoms: _482  and  _484
REMARK  194  A    between atoms: _484  and  _485
REMARK  195  A    between atoms: _488  and  _490
REMARK  196  A    between atoms: _490  and  _491
REMARK  197  A    between atoms: _490  and  _493
REMARK  198  A    between atoms: _493  and  _494
REMARK  199  A    between atoms: _496  and  _498
REMARK  200  A    between atoms: _498  and  _499
REMARK  201  A    between atoms: _501  and  _503
REMARK  202  A    between atoms: _503  and  _504
REMARK  203  A    between atoms: _503  and  _506
REMARK  204  A    between atoms: _506  and  _507
REMARK  205  A    between atoms: _510  and  _512
REMARK  206  A    between atoms: _512  and  _513
REMARK  207  A    between atoms: _515  and  _517
REMARK  208  A    between atoms: _517  and  _518
REMARK  209  A    between atoms: _517  and  _520
REMARK  210  A    between atoms: _520  and  _521
REMARK  211  A    between atoms: _526  and  _528
REMARK  212  A    between atoms: _528  and  _529
REMARK  213  A    between atoms: _528  and  _531
REMARK  214  A    between atoms: _531  and  _532
REMARK  215  A    between atoms: _532  and  _533
REMARK  216  A    between atoms: _540  and  _541
REMARK  217  A    between atoms: _541  and  _557
REMARK  218  A    between atoms: _542  and  _544
REMARK  219  A    between atoms: _544  and  _545
REMARK  220  A    between atoms: _545  and  _546
REMARK  221  A    between atoms: _550  and  _552
REMARK  222  A    between atoms: _552  and  _553
REMARK  223  A    between atoms: _552  and  _560
REMARK  224  A    between atoms: _553  and  _554
REMARK  225  A    between atoms: _554  and  _555
REMARK  226  A    between atoms: _555  and  _556
REMARK  227  A    between atoms: _556  and  _557
REMARK  228  A    between atoms: _562  and  _564
REMARK  229  A    between atoms: _564  and  _565
REMARK  230  A    between atoms: _564  and  _567
REMARK  231  A    between atoms: _567  and  _568
REMARK  232  A    between atoms: _571  and  _573
REMARK  233  A    between atoms: _573  and  _574
REMARK  234  A    between atoms: _576  and  _578
REMARK  235  A    between atoms: _578  and  _579
REMARK  236  A    between atoms: _582  and  _584
REMARK  237  A    between atoms: _584  and  _585
REMARK  238  A    between atoms: _584  and  _587
REMARK  239  A    between atoms: _587  and  _588
REMARK  240  A    between atoms: _593  and  _594
REMARK                            x       y       z     vdW  Elec       q    Type
REMARK                         _______ _______ _______ _____ _____    ______ ____
ROOT
ATOM      1  O   HOH     1      31.173  23.908  33.150  0.00  0.00    +0.000 OA
ENDROOT
TORSDOF 0
REMARK  Name = ../refined-set-2016/3sym/3sym_pocket.pdb
REMARK  240 active torsions:
REMARK  status: ('A' for Active; 'I' for Inactive)
REMARK    1  A    between atoms: _1  and  _3
REMARK    2  A    between atoms: _3  and  _4
REMARK    3  A    between atoms: _3  and  _6
REMARK    4  A    between atoms: _6  and  _7
REMARK    5  A    between atoms: _12  and  _13
REMARK    6  A    between atoms: _15  and  _17
REMARK    7  A    between atoms: _17  and  _18
REMARK    8  A    between atoms: _17  and  _20
REMARK    9  A    between atoms: _20  and  _21
REMARK   10  A    between atoms: _21  and  _22
REMARK   11  A    between atoms: _25  and  _27
REMARK   12  A    between atoms: _27  and  _28
REMARK   13  A    between atoms: _27  and  _30
REMARK   14  A    between atoms: _30  and  _31
REMARK   15  A    between atoms: _36  and  _37
REMARK   16  A    between atoms: _39  and  _41
REMARK   17  A    between atoms: _41  and  _42
REMARK   18  A    between atoms: _44  and  _46
REMARK   19  A    between atoms: _46  and  _47
REMARK   20  A    between atoms: _46  and  _49
REMARK   21  A    between atoms: _49  and  _50
REMARK   22  A    between atoms: _55  and  _57
REMARK   23  A    between atoms: _57  and  _58
REMARK   24  A    between atoms: _60  and  _62
REMARK   25  A    between atoms: _62  and  _63
REMARK   26  A    between atoms: _65  and  _67
REMARK   27  A    between atoms: _67  and  _68
REMARK   28  A    between atoms: _67  and  _70
REMARK   29  A    between atoms: _70  and  _71
REMARK   30  A    between atoms: _74  and  _76
REMARK   31  A    between atoms: _76  and  _77
REMARK   32  A    between atoms: _79  and  _81
REMARK   33  A    between atoms: _81  and  _82
REMARK   34  A    between atoms: _81  and  _84
REMARK   35  A    between atoms: _85  and  _86
REMARK   36  A    between atoms: _86  and  _87
REMARK   37  A    between atoms: _96  and  _98
REMARK   38  A    between atoms: _98  and  _99
REMARK   39  A    between atoms: _98  and  _101
REMARK   40  A    between atoms: _101  and  _102
REMARK   41  A    between atoms: _105  and  _107
REMARK   42  A    between atoms: _107  and  _108
REMARK   43  A    between atoms: _111  and  _113
REMARK   44  A    between atoms: _113  and  _114
REMARK   45  A    between atoms: _113  and  _116
REMARK   46  A    between atoms: _116  and  _117
REMARK   47  A    between atoms: _123  and  _125
REMARK   48  A    between atoms: _125  and  _126
REMARK   49  A    between atoms: _125  and  _128
REMARK   50  A    between atoms: _128  and  _129
REMARK   51  A    between atoms: _134  and  _136
REMARK   52  A    between atoms: _136  and  _137
REMARK   53  A    between atoms: _136  and  _139
REMARK   54  A    between atoms: _139  and  _140
REMARK   55  A    between atoms: _143  and  _145
REMARK   56  A    between atoms: _145  and  _146
REMARK   57  A    between atoms: _145  and  _148
REMARK   58  A    between atoms: _148  and  _149
REMARK   59  A    between atoms: _154  and  _156
REMARK   60  A    between atoms: _156  and  _157
REMARK   61  A    between atoms: _156  and  _159
REMARK   62  A    between atoms: _159  and  _160
REMARK   63  A    between atoms: _166  and  _168
REMARK   64  A    between atoms: _168  and  _169
REMARK   65  A    between atoms: _168  and  _171
REMARK   66  A    between atoms: _171  and  _172
REMARK   67  A    between atoms: _178  and  _180
REMARK   68  A    between atoms: _180  and  _181
REMARK   69  A    between atoms: _180  and  _183
REMARK   70  A    between atoms: _183  and  _184
REMARK   71  A    between atoms: _184  and  _185
REMARK   72  A    between atoms: _185  and  _186
REMARK   73  A    between atoms: _195  and  _197
REMARK   74  A    between atoms: _197  and  _198
REMARK   75  A    between atoms: _197  and  _200
REMARK   76  A    between atoms: _200  and  _201
REMARK   77  A    between atoms: _206  and  _208
REMARK   78  A    between atoms: _208  and  _209
REMARK   79  A    between atoms: _208  and  _211
REMARK   80  A    between atoms: _211  and  _212
REMARK   81  A    between atoms: _215  and  _217
REMARK   82  A    between atoms: _217  and  _218
REMARK   83  A    between atoms: _217  and  _220
REMARK   84  A    between atoms: _220  and  _221
REMARK   85  A    between atoms: _224  and  _226
REMARK   86  A    between atoms: _226  and  _227
REMARK   87  A    between atoms: _226  and  _229
REMARK   88  A    between atoms: _229  and  _230
REMARK   89  A    between atoms: _235  and  _237
REMARK   90  A    between atoms: _237  and  _238
REMARK   91  A    between atoms: _237  and  _240
REMARK   92  A    between atoms: _240  and  _241
REMARK   93  A    between atoms: _244  and  _246
REMARK   94  A    between atoms: _246  and  _247
REMARK   95  A    between atoms: _246  and  _249
REMARK   96  A    between atoms: _249  and  _250
REMARK   97  A    between atoms: _255  and  _257
REMARK   98  A    between atoms: _257  and  _258
REMARK   99  A    between atoms: _257  and  _260
REMARK  100  A    between atoms: _260  and  _261
REMARK  101  A    between atoms: _266  and  _268
REMARK  102  A    between atoms: _268  and  _269
REMARK  103  A    between atoms: _268  and  _271
REMARK  104  A    between atoms: _271  and  _272
REMARK  105  A    between atoms: _275  and  _277
REMARK  106  A    between atoms: _277  and  _278
REMARK  107  A    between atoms: _277  and  _280
REMARK  108  A    between atoms: _283  and  _285
REMARK  109  A    between atoms: _285  and  _286
REMARK  110  A    between atoms: _285  and  _288
REMARK  111  A    between atoms: _288  and  _289
REMARK  112  A    between atoms: _292  and  _294
REMARK  113  A    between atoms: _294  and  _295
REMARK  114  A    between atoms: _298  and  _300
REMARK  115  A    between atoms: _300  and  _301
REMARK  116  A    between atoms: _300  and  _303
REMARK  117  A    between atoms: _303  and  _304
REMARK  118  A    between atoms: _307  and  _309
REMARK  119  A    between atoms: _309  and  _310
REMARK  120  A    between atoms: _309  and  _312
REMARK  121  A    between atoms: _312  and  _313
REMARK  122  A    between atoms: _318  and  _320
REMARK  123  A    between atoms: _320  and  _321
REMARK  124  A    between atoms: _323  and  _325
REMARK  125  A    between atoms: _325  and  _326
REMARK  126  A    between atoms: _325  and  _328
REMARK  127  A    between atoms: _331  and  _333
REMARK  128  A    between atoms: _333  and  _334
REMARK  129  A    between atoms: _337  and  _339
REMARK  130  A    between atoms: _339  and  _340
REMARK  131  A    between atoms: _339  and  _342
REMARK  132  A    between atoms: _342  and  _343
REMARK  133  A    between atoms: _348  and  _350
REMARK  134  A    between atoms: _350  and  _351
REMARK  135  A    between atoms: _350  and  _353
REMARK  136  A    between atoms: _353  and  _354
REMARK  137  A    between atoms: _354  and  _355
REMARK  138  A    between atoms: _355  and  _356
REMARK  139  A    between atoms: _356  and  _357
REMARK  140  A    between atoms: _361  and  _363
REMARK  141  A    between atoms: _363  and  _364
REMARK  142  A    between atoms: _363  and  _366
REMARK  143  A    between atoms: _366  and  _367
REMARK  144  A    between atoms: _370  and  _372
REMARK  145  A    between atoms: _372  and  _373
REMARK  146  A    between atoms: _372  and  _375
REMARK  147  A    between atoms: _375  and  _376
REMARK  148  A    between atoms: _381  and  _383
REMARK  149  A    between atoms: _383  and  _384
REMARK  150  A    between atoms: _386  and  _388
REMARK  151  A    between atoms: _388  and  _389
REMARK  152  A    between atoms: _388  and  _391
REMARK  153  A    between atoms: _391  and  _392
REMARK  154  A    between atoms: _392  and  _393
REMARK  155  A    between atoms: _393  and  _394
REMARK  156  A    between atoms: _394  and  _395
REMARK  157  A    between atoms: _399  and  _401
REMARK  158  A    between atoms: _401  and  _402
REMARK  159  A    between atoms: _401  and  _404
REMARK  160  A    between atoms: _404  and  _405
REMARK  161  A    between atoms: _405  and  _406
REMARK  162  A    between atoms: _406  and  _407
REMARK  163  A    between atoms: _416  and  _418
REMARK  164  A    between atoms: _418  and  _419
REMARK  165  A    between atoms: _418  and  _421
REMARK  166  A    between atoms: _421  and  _422
REMARK  167  A    between atoms: _427  and  _428
REMARK  168  A    between atoms: _430  and  _432
REMARK  169  A    between atoms: _432  and  _433
REMARK  170  A    between atoms: _432  and  _435
REMARK  171  A    between atoms: _435  and  _436
REMARK  172  A    between atoms: _436  and  _437
REMARK  173  A    between atoms: _437  and  _438
REMARK  174  A    between atoms: _438  and  _439
REMARK  175  A    between atoms: _443  and  _445
REMARK  176  A    between atoms: _445  and  _446
REMARK  177  A    between atoms: _445  and  _448
REMARK  178  A    between atoms: _448  and  _449
REMARK  179  A    between atoms: _449  and  _450
REMARK  180  A    between atoms: _455  and  _457
REMARK  181  A    between atoms: _457  and  _458
REMARK  182  A    between atoms: _457  and  _460
REMARK  183  A    between atoms: _460  and  _461
REMARK  184  A    between atoms: _463  and  _465
REMARK  185  A    between atoms: _465  and  _466
REMARK  186  A    between atoms: _465  and  _468
REMARK  187  A    between atoms: _468  and  _469
REMARK  188  A    between atoms: _472  and  _474
REMARK  189  A    between atoms: _474  and  _475
REMARK  190  A    between atoms: _474  and  _477
REMARK  191  A    between atoms: _477  and  _478
REMARK  192  A    between atoms: _478  and  _479
REMARK  193  A    between atoms: _482  and  _484
REMARK  194  A    between atoms: _484  and  _485
REMARK  195  A    between atoms: _488  and  _490
REMARK  196  A    between atoms: _490  and  _491
REMARK  197  A    between atoms: _490  and  _493
REMARK  198  A    between atoms: _493  and  _494
REMARK  199  A    between atoms: _496  and  _498
REMARK  200  A    between atoms: _498  and  _499
REMARK  201  A    between atoms: _501  and  _503
REMARK  202  A    between atoms: _503  and  _504
REMARK  203  A    between atoms: _503  and  _506
REMARK  204  A    between atoms: _506  and  _507
REMARK  205  A    between atoms: _510  and  _512
REMARK  206  A    between atoms: _512  and  _513
REMARK  207  A    between atoms: _515  and  _517
REMARK  208  A    between atoms: _517  and  _518
REMARK  209  A    between atoms: _517  and  _520
REMARK  210  A    between atoms: _520  and  _521
REMARK  211  A    between atoms: _526  and  _528
REMARK  212  A    between atoms: _528  and  _529
REMARK  213  A    between atoms: _528  and  _531
REMARK  214  A    between atoms: _531  and  _532
REMARK  215  A    between atoms: _532  and  _533
REMARK  216  A    between atoms: _540  and  _541
REMARK  217  A    between atoms: _541  and  _557
REMARK  218  A    between atoms: _542  and  _544
REMARK  219  A    between atoms: _544  and  _545
REMARK  220  A    between atoms: _545  and  _546
REMARK  221  A    between atoms: _550  and  _552
REMARK  222  A    between atoms: _552  and  _553
REMARK  223  A    between atoms: _552  and  _560
REMARK  224  A    between atoms: _553  and  _554
REMARK  225  A    between atoms: _554  and  _555
REMARK  226  A    between atoms: _555  and  _556
REMARK  227  A    between atoms: _556  and  _557
REMARK  228  A    between atoms: _562  and  _564
REMARK  229  A    between atoms: _564  and  _565
REMARK  230  A    between atoms: _564  and  _567
REMARK  231  A    between atoms: _567  and  _568
REMARK  232  A    between atoms: _571  and  _573
REMARK  233  A    between atoms: _573  and  _574
REMARK  234  A    between atoms: _576  and  _578
REMARK  235  A    between atoms: _578  and  _579
REMARK  236  A    between atoms: _582  and  _584
REMARK  237  A    between atoms: _584  and  _585
REMARK  238  A    between atoms: _584  and  _587
REMARK  239  A    between atoms: _587  and  _588
REMARK  240  A    between atoms: _593  and  _594
REMARK                            x       y       z     vdW  Elec       q    Type
REMARK                         _______ _______ _______ _____ _____    ______ ____
ROOT
ATOM      1  O   HOH     1      38.683  23.901  22.244  0.00  0.00    +0.000 OA
ENDROOT
TORSDOF 0
REMARK  Name = ../refined-set-2016/3sym/3sym_pocket.pdb
REMARK  240 active torsions:
REMARK  status: ('A' for Active; 'I' for Inactive)
REMARK    1  A    between atoms: _1  and  _3
REMARK    2  A    between atoms: _3  and  _4
REMARK    3  A    between atoms: _3  and  _6
REMARK    4  A    between atoms: _6  and  _7
REMARK    5  A    between atoms: _12  and  _13
REMARK    6  A    between atoms: _15  and  _17
REMARK    7  A    between atoms: _17  and  _18
REMARK    8  A    between atoms: _17  and  _20
REMARK    9  A    between atoms: _20  and  _21
REMARK   10  A    between atoms: _21  and  _22
REMARK   11  A    between atoms: _25  and  _27
REMARK   12  A    between atoms: _27  and  _28
REMARK   13  A    between atoms: _27  and  _30
REMARK   14  A    between atoms: _30  and  _31
REMARK   15  A    between atoms: _36  and  _37
REMARK   16  A    between atoms: _39  and  _41
REMARK   17  A    between atoms: _41  and  _42
REMARK   18  A    between atoms: _44  and  _46
REMARK   19  A    between atoms: _46  and  _47
REMARK   20  A    between atoms: _46  and  _49
REMARK   21  A    between atoms: _49  and  _50
REMARK   22  A    between atoms: _55  and  _57
REMARK   23  A    between atoms: _57  and  _58
REMARK   24  A    between atoms: _60  and  _62
REMARK   25  A    between atoms: _62  and  _63
REMARK   26  A    between atoms: _65  and  _67
REMARK   27  A    between atoms: _67  and  _68
REMARK   28  A    between atoms: _67  and  _70
REMARK   29  A    between atoms: _70  and  _71
REMARK   30  A    between atoms: _74  and  _76
REMARK   31  A    between atoms: _76  and  _77
REMARK   32  A    between atoms: _79  and  _81
REMARK   33  A    between atoms: _81  and  _82
REMARK   34  A    between atoms: _81  and  _84
REMARK   35  A    between atoms: _85  and  _86
REMARK   36  A    between atoms: _86  and  _87
REMARK   37  A    between atoms: _96  and  _98
REMARK   38  A    between atoms: _98  and  _99
REMARK   39  A    between atoms: _98  and  _101
REMARK   40  A    between atoms: _101  and  _102
REMARK   41  A    between atoms: _105  and  _107
REMARK   42  A    between atoms: _107  and  _108
REMARK   43  A    between atoms: _111  and  _113
REMARK   44  A    between atoms: _113  and  _114
REMARK   45  A    between atoms: _113  and  _116
REMARK   46  A    between atoms: _116  and  _117
REMARK   47  A    between atoms: _123  and  _125
REMARK   48  A    between atoms: _125  and  _126
REMARK   49  A    between atoms: _125  and  _128
REMARK   50  A    between atoms: _128  and  _129
REMARK   51  A    between atoms: _134  and  _136
REMARK   52  A    between atoms: _136  and  _137
REMARK   53  A    between atoms: _136  and  _139
REMARK   54  A    between atoms: _139  and  _140
REMARK   55  A    between atoms: _143  and  _145
REMARK   56  A    between atoms: _145  and  _146
REMARK   57  A    between atoms: _145  and  _148
REMARK   58  A    between atoms: _148  and  _149
REMARK   59  A    between atoms: _154  and  _156
REMARK   60  A    between atoms: _156  and  _157
REMARK   61  A    between atoms: _156  and  _159
REMARK   62  A    between atoms: _159  and  _160
REMARK   63  A    between atoms: _166  and  _168
REMARK   64  A    between atoms: _168  and  _169
REMARK   65  A    between atoms: _168  and  _171
REMARK   66  A    between atoms: _171  and  _172
REMARK   67  A    between atoms: _178  and  _180
REMARK   68  A    between atoms: _180  and  _181
REMARK   69  A    between atoms: _180  and  _183
REMARK   70  A    between atoms: _183  and  _184
REMARK   71  A    between atoms: _184  and  _185
REMARK   72  A    between atoms: _185  and  _186
REMARK   73  A    between atoms: _195  and  _197
REMARK   74  A    between atoms: _197  and  _198
REMARK   75  A    between atoms: _197  and  _200
REMARK   76  A    between atoms: _200  and  _201
REMARK   77  A    between atoms: _206  and  _208
REMARK   78  A    between atoms: _208  and  _209
REMARK   79  A    between atoms: _208  and  _211
REMARK   80  A    between atoms: _211  and  _212
REMARK   81  A    between atoms: _215  and  _217
REMARK   82  A    between atoms: _217  and  _218
REMARK   83  A    between atoms: _217  and  _220
REMARK   84  A    between atoms: _220  and  _221
REMARK   85  A    between atoms: _224  and  _226
REMARK   86  A    between atoms: _226  and  _227
REMARK   87  A    between atoms: _226  and  _229
REMARK   88  A    between atoms: _229  and  _230
REMARK   89  A    between atoms: _235  and  _237
REMARK   90  A    between atoms: _237  and  _238
REMARK   91  A    between atoms: _237  and  _240
REMARK   92  A    between atoms: _240  and  _241
REMARK   93  A    between atoms: _244  and  _246
REMARK   94  A    between atoms: _246  and  _247
REMARK   95  A    between atoms: _246  and  _249
REMARK   96  A    between atoms: _249  and  _250
REMARK   97  A    between atoms: _255  and  _257
REMARK   98  A    between atoms: _257  and  _258
REMARK   99  A    between atoms: _257  and  _260
REMARK  100  A    between atoms: _260  and  _261
REMARK  101  A    between atoms: _266  and  _268
REMARK  102  A    between atoms: _268  and  _269
REMARK  103  A    between atoms: _268  and  _271
REMARK  104  A    between atoms: _271  and  _272
REMARK  105  A    between atoms: _275  and  _277
REMARK  106  A    between atoms: _277  and  _278
REMARK  107  A    between atoms: _277  and  _280
REMARK  108  A    between atoms: _283  and  _285
REMARK  109  A    between atoms: _285  and  _286
REMARK  110  A    between atoms: _285  and  _288
REMARK  111  A    between atoms: _288  and  _289
REMARK  112  A    between atoms: _292  and  _294
REMARK  113  A    between atoms: _294  and  _295
REMARK  114  A    between atoms: _298  and  _300
REMARK  115  A    between atoms: _300  and  _301
REMARK  116  A    between atoms: _300  and  _303
REMARK  117  A    between atoms: _303  and  _304
REMARK  118  A    between atoms: _307  and  _309
REMARK  119  A    between atoms: _309  and  _310
REMARK  120  A    between atoms: _309  and  _312
REMARK  121  A    between atoms: _312  and  _313
REMARK  122  A    between atoms: _318  and  _320
REMARK  123  A    between atoms: _320  and  _321
REMARK  124  A    between atoms: _323  and  _325
REMARK  125  A    between atoms: _325  and  _326
REMARK  126  A    between atoms: _325  and  _328
REMARK  127  A    between atoms: _331  and  _333
REMARK  128  A    between atoms: _333  and  _334
REMARK  129  A    between atoms: _337  and  _339
REMARK  130  A    between atoms: _339  and  _340
REMARK  131  A    between atoms: _339  and  _342
REMARK  132  A    between atoms: _342  and  _343
REMARK  133  A    between atoms: _348  and  _350
REMARK  134  A    between atoms: _350  and  _351
REMARK  135  A    between atoms: _350  and  _353
REMARK  136  A    between atoms: _353  and  _354
REMARK  137  A    between atoms: _354  and  _355
REMARK  138  A    between atoms: _355  and  _356
REMARK  139  A    between atoms: _356  and  _357
REMARK  140  A    between atoms: _361  and  _363
REMARK  141  A    between atoms: _363  and  _364
REMARK  142  A    between atoms: _363  and  _366
REMARK  143  A    between atoms: _366  and  _367
REMARK  144  A    between atoms: _370  and  _372
REMARK  145  A    between atoms: _372  and  _373
REMARK  146  A    between atoms: _372  and  _375
REMARK  147  A    between atoms: _375  and  _376
REMARK  148  A    between atoms: _381  and  _383
REMARK  149  A    between atoms: _383  and  _384
REMARK  150  A    between atoms: _386  and  _388
REMARK  151  A    between atoms: _388  and  _389
REMARK  152  A    between atoms: _388  and  _391
REMARK  153  A    between atoms: _391  and  _392
REMARK  154  A    between atoms: _392  and  _393
REMARK  155  A    between atoms: _393  and  _394
REMARK  156  A    between atoms: _394  and  _395
REMARK  157  A    between atoms: _399  and  _401
REMARK  158  A    between atoms: _401  and  _402
REMARK  159  A    between atoms: _401  and  _404
REMARK  160  A    between atoms: _404  and  _405
REMARK  161  A    between atoms: _405  and  _406
REMARK  162  A    between atoms: _406  and  _407
REMARK  163  A    between atoms: _416  and  _418
REMARK  164  A    between atoms: _418  and  _419
REMARK  165  A    between atoms: _418  and  _421
REMARK  166  A    between atoms: _421  and  _422
REMARK  167  A    between atoms: _427  and  _428
REMARK  168  A    between atoms: _430  and  _432
REMARK  169  A    between atoms: _432  and  _433
REMARK  170  A    between atoms: _432  and  _435
REMARK  171  A    between atoms: _435  and  _436
REMARK  172  A    between atoms: _436  and  _437
REMARK  173  A    between atoms: _437  and  _438
REMARK  174  A    between atoms: _438  and  _439
REMARK  175  A    between atoms: _443  and  _445
REMARK  176  A    between atoms: _445  and  _446
REMARK  177  A    between atoms: _445  and  _448
REMARK  178  A    between atoms: _448  and  _449
REMARK  179  A    between atoms: _449  and  _450
REMARK  180  A    between atoms: _455  and  _457
REMARK  181  A    between atoms: _457  and  _458
REMARK  182  A    between atoms: _457  and  _460
REMARK  183  A    between atoms: _460  and  _461
REMARK  184  A    between atoms: _463  and  _465
REMARK  185  A    between atoms: _465  and  _466
REMARK  186  A    between atoms: _465  and  _468
REMARK  187  A    between atoms: _468  and  _469
REMARK  188  A    between atoms: _472  and  _474
REMARK  189  A    between atoms: _474  and  _475
REMARK  190  A    between atoms: _474  and  _477
REMARK  191  A    between atoms: _477  and  _478
REMARK  192  A    between atoms: _478  and  _479
REMARK  193  A    between atoms: _482  and  _484
REMARK  194  A    between atoms: _484  and  _485
REMARK  195  A    between atoms: _488  and  _490
REMARK  196  A    between atoms: _490  and  _491
REMARK  197  A    between atoms: _490  and  _493
REMARK  198  A    between atoms: _493  and  _494
REMARK  199  A    between atoms: _496  and  _498
REMARK  200  A    between atoms: _498  and  _499
REMARK  201  A    between atoms: _501  and  _503
REMARK  202  A    between atoms: _503  and  _504
REMARK  203  A    between atoms: _503  and  _506
REMARK  204  A    between atoms: _506  and  _507
REMARK  205  A    between atoms: _510  and  _512
REMARK  206  A    between atoms: _512  and  _513
REMARK  207  A    between atoms: _515  and  _517
REMARK  208  A    between atoms: _517  and  _518
REMARK  209  A    between atoms: _517  and  _520
REMARK  210  A    between atoms: _520  and  _521
REMARK  211  A    between atoms: _526  and  _528
REMARK  212  A    between atoms: _528  and  _529
REMARK  213  A    between atoms: _528  and  _531
REMARK  214  A    between atoms: _531  and  _532
REMARK  215  A    between atoms: _532  and  _533
REMARK  216  A    between atoms: _540  and  _541
REMARK  217  A    between atoms: _541  and  _557
REMARK  218  A    between atoms: _542  and  _544
REMARK  219  A    between atoms: _544  and  _545
REMARK  220  A    between atoms: _545  and  _546
REMARK  221  A    between atoms: _550  and  _552
REMARK  222  A    between atoms: _552  and  _553
REMARK  223  A    between atoms: _552  and  _560
REMARK  224  A    between atoms: _553  and  _554
REMARK  225  A    between atoms: _554  and  _555
REMARK  226  A    between atoms: _555  and  _556
REMARK  227  A    between atoms: _556  and  _557
REMARK  228  A    between atoms: _562  and  _564
REMARK  229  A    between atoms: _564  and  _565
REMARK  230  A    between atoms: _564  and  _567
REMARK  231  A    between atoms: _567  and  _568
REMARK  232  A    between atoms: _571  and  _573
REMARK  233  A    between atoms: _573  and  _574
REMARK  234  A    between atoms: _576  and  _578
REMARK  235  A    between atoms: _578  and  _579
REMARK  236  A    between atoms: _582  and  _584
REMARK  237  A    between atoms: _584  and  _585
REMARK  238  A    between atoms: _584  and  _587
REMARK  239  A    between atoms: _587  and  _588
REMARK  240  A    between atoms: _593  and  _594
REMARK                            x       y       z     vdW  Elec       q    Type
REMARK                         _______ _______ _______ _____ _____    ______ ____
ROOT
ATOM      1  O   HOH     1      41.138  26.401  37.692  0.00  0.00    +0.000 OA
ENDROOT
TORSDOF 0
REMARK  Name = ../refined-set-2016/3sym/3sym_pocket.pdb
REMARK  240 active torsions:
REMARK  status: ('A' for Active; 'I' for Inactive)
REMARK    1  A    between atoms: _1  and  _3
REMARK    2  A    between atoms: _3  and  _4
REMARK    3  A    between atoms: _3  and  _6
REMARK    4  A    between atoms: _6  and  _7
REMARK    5  A    between atoms: _12  and  _13
REMARK    6  A    between atoms: _15  and  _17
REMARK    7  A    between atoms: _17  and  _18
REMARK    8  A    between atoms: _17  and  _20
REMARK    9  A    between atoms: _20  and  _21
REMARK   10  A    between atoms: _21  and  _22
REMARK   11  A    between atoms: _25  and  _27
REMARK   12  A    between atoms: _27  and  _28
REMARK   13  A    between atoms: _27  and  _30
REMARK   14  A    between atoms: _30  and  _31
REMARK   15  A    between atoms: _36  and  _37
REMARK   16  A    between atoms: _39  and  _41
REMARK   17  A    between atoms: _41  and  _42
REMARK   18  A    between atoms: _44  and  _46
REMARK   19  A    between atoms: _46  and  _47
REMARK   20  A    between atoms: _46  and  _49
REMARK   21  A    between atoms: _49  and  _50
REMARK   22  A    between atoms: _55  and  _57
REMARK   23  A    between atoms: _57  and  _58
REMARK   24  A    between atoms: _60  and  _62
REMARK   25  A    between atoms: _62  and  _63
REMARK   26  A    between atoms: _65  and  _67
REMARK   27  A    between atoms: _67  and  _68
REMARK   28  A    between atoms: _67  and  _70
REMARK   29  A    between atoms: _70  and  _71
REMARK   30  A    between atoms: _74  and  _76
REMARK   31  A    between atoms: _76  and  _77
REMARK   32  A    between atoms: _79  and  _81
REMARK   33  A    between atoms: _81  and  _82
REMARK   34  A    between atoms: _81  and  _84
REMARK   35  A    between atoms: _85  and  _86
REMARK   36  A    between atoms: _86  and  _87
REMARK   37  A    between atoms: _96  and  _98
REMARK   38  A    between atoms: _98  and  _99
REMARK   39  A    between atoms: _98  and  _101
REMARK   40  A    between atoms: _101  and  _102
REMARK   41  A    between atoms: _105  and  _107
REMARK   42  A    between atoms: _107  and  _108
REMARK   43  A    between atoms: _111  and  _113
REMARK   44  A    between atoms: _113  and  _114
REMARK   45  A    between atoms: _113  and  _116
REMARK   46  A    between atoms: _116  and  _117
REMARK   47  A    between atoms: _123  and  _125
REMARK   48  A    between atoms: _125  and  _126
REMARK   49  A    between atoms: _125  and  _128
REMARK   50  A    between atoms: _128  and  _129
REMARK   51  A    between atoms: _134  and  _136
REMARK   52  A    between atoms: _136  and  _137
REMARK   53  A    between atoms: _136  and  _139
REMARK   54  A    between atoms: _139  and  _140
REMARK   55  A    between atoms: _143  and  _145
REMARK   56  A    between atoms: _145  and  _146
REMARK   57  A    between atoms: _145  and  _148
REMARK   58  A    between atoms: _148  and  _149
REMARK   59  A    between atoms: _154  and  _156
REMARK   60  A    between atoms: _156  and  _157
REMARK   61  A    between atoms: _156  and  _159
REMARK   62  A    between atoms: _159  and  _160
REMARK   63  A    between atoms: _166  and  _168
REMARK   64  A    between atoms: _168  and  _169
REMARK   65  A    between atoms: _168  and  _171
REMARK   66  A    between atoms: _171  and  _172
REMARK   67  A    between atoms: _178  and  _180
REMARK   68  A    between atoms: _180  and  _181
REMARK   69  A    between atoms: _180  and  _183
REMARK   70  A    between atoms: _183  and  _184
REMARK   71  A    between atoms: _184  and  _185
REMARK   72  A    between atoms: _185  and  _186
REMARK   73  A    between atoms: _195  and  _197
REMARK   74  A    between atoms: _197  and  _198
REMARK   75  A    between atoms: _197  and  _200
REMARK   76  A    between atoms: _200  and  _201
REMARK   77  A    between atoms: _206  and  _208
REMARK   78  A    between atoms: _208  and  _209
REMARK   79  A    between atoms: _208  and  _211
REMARK   80  A    between atoms: _211  and  _212
REMARK   81  A    between atoms: _215  and  _217
REMARK   82  A    between atoms: _217  and  _218
REMARK   83  A    between atoms: _217  and  _220
REMARK   84  A    between atoms: _220  and  _221
REMARK   85  A    between atoms: _224  and  _226
REMARK   86  A    between atoms: _226  and  _227
REMARK   87  A    between atoms: _226  and  _229
REMARK   88  A    between atoms: _229  and  _230
REMARK   89  A    between atoms: _235  and  _237
REMARK   90  A    between atoms: _237  and  _238
REMARK   91  A    between atoms: _237  and  _240
REMARK   92  A    between atoms: _240  and  _241
REMARK   93  A    between atoms: _244  and  _246
REMARK   94  A    between atoms: _246  and  _247
REMARK   95  A    between atoms: _246  and  _249
REMARK   96  A    between atoms: _249  and  _250
REMARK   97  A    between atoms: _255  and  _257
REMARK   98  A    between atoms: _257  and  _258
REMARK   99  A    between atoms: _257  and  _260
REMARK  100  A    between atoms: _260  and  _261
REMARK  101  A    between atoms: _266  and  _268
REMARK  102  A    between atoms: _268  and  _269
REMARK  103  A    between atoms: _268  and  _271
REMARK  104  A    between atoms: _271  and  _272
REMARK  105  A    between atoms: _275  and  _277
REMARK  106  A    between atoms: _277  and  _278
REMARK  107  A    between atoms: _277  and  _280
REMARK  108  A    between atoms: _283  and  _285
REMARK  109  A    between atoms: _285  and  _286
REMARK  110  A    between atoms: _285  and  _288
REMARK  111  A    between atoms: _288  and  _289
REMARK  112  A    between atoms: _292  and  _294
REMARK  113  A    between atoms: _294  and  _295
REMARK  114  A    between atoms: _298  and  _300
REMARK  115  A    between atoms: _300  and  _301
REMARK  116  A    between atoms: _300  and  _303
REMARK  117  A    between atoms: _303  and  _304
REMARK  118  A    between atoms: _307  and  _309
REMARK  119  A    between atoms: _309  and  _310
REMARK  120  A    between atoms: _309  and  _312
REMARK  121  A    between atoms: _312  and  _313
REMARK  122  A    between atoms: _318  and  _320
REMARK  123  A    between atoms: _320  and  _321
REMARK  124  A    between atoms: _323  and  _325
REMARK  125  A    between atoms: _325  and  _326
REMARK  126  A    between atoms: _325  and  _328
REMARK  127  A    between atoms: _331  and  _333
REMARK  128  A    between atoms: _333  and  _334
REMARK  129  A    between atoms: _337  and  _339
REMARK  130  A    between atoms: _339  and  _340
REMARK  131  A    between atoms: _339  and  _342
REMARK  132  A    between atoms: _342  and  _343
REMARK  133  A    between atoms: _348  and  _350
REMARK  134  A    between atoms: _350  and  _351
REMARK  135  A    between atoms: _350  and  _353
REMARK  136  A    between atoms: _353  and  _354
REMARK  137  A    between atoms: _354  and  _355
REMARK  138  A    between atoms: _355  and  _356
REMARK  139  A    between atoms: _356  and  _357
REMARK  140  A    between atoms: _361  and  _363
REMARK  141  A    between atoms: _363  and  _364
REMARK  142  A    between atoms: _363  and  _366
REMARK  143  A    between atoms: _366  and  _367
REMARK  144  A    between atoms: _370  and  _372
REMARK  145  A    between atoms: _372  and  _373
REMARK  146  A    between atoms: _372  and  _375
REMARK  147  A    between atoms: _375  and  _376
REMARK  148  A    between atoms: _381  and  _383
REMARK  149  A    between atoms: _383  and  _384
REMARK  150  A    between atoms: _386  and  _388
REMARK  151  A    between atoms: _388  and  _389
REMARK  152  A    between atoms: _388  and  _391
REMARK  153  A    between atoms: _391  and  _392
REMARK  154  A    between atoms: _392  and  _393
REMARK  155  A    between atoms: _393  and  _394
REMARK  156  A    between atoms: _394  and  _395
REMARK  157  A    between atoms: _399  and  _401
REMARK  158  A    between atoms: _401  and  _402
REMARK  159  A    between atoms: _401  and  _404
REMARK  160  A    between atoms: _404  and  _405
REMARK  161  A    between atoms: _405  and  _406
REMARK  162  A    between atoms: _406  and  _407
REMARK  163  A    between atoms: _416  and  _418
REMARK  164  A    between atoms: _418  and  _419
REMARK  165  A    between atoms: _418  and  _421
REMARK  166  A    between atoms: _421  and  _422
REMARK  167  A    between atoms: _427  and  _428
REMARK  168  A    between atoms: _430  and  _432
REMARK  169  A    between atoms: _432  and  _433
REMARK  170  A    between atoms: _432  and  _435
REMARK  171  A    between atoms: _435  and  _436
REMARK  172  A    between atoms: _436  and  _437
REMARK  173  A    between atoms: _437  and  _438
REMARK  174  A    between atoms: _438  and  _439
REMARK  175  A    between atoms: _443  and  _445
REMARK  176  A    between atoms: _445  and  _446
REMARK  177  A    between atoms: _445  and  _448
REMARK  178  A    between atoms: _448  and  _449
REMARK  179  A    between atoms: _449  and  _450
REMARK  180  A    between atoms: _455  and  _457
REMARK  181  A    between atoms: _457  and  _458
REMARK  182  A    between atoms: _457  and  _460
REMARK  183  A    between atoms: _460  and  _461
REMARK  184  A    between atoms: _463  and  _465
REMARK  185  A    between atoms: _465  and  _466
REMARK  186  A    between atoms: _465  and  _468
REMARK  187  A    between atoms: _468  and  _469
REMARK  188  A    between atoms: _472  and  _474
REMARK  189  A    between atoms: _474  and  _475
REMARK  190  A    between atoms: _474  and  _477
REMARK  191  A    between atoms: _477  and  _478
REMARK  192  A    between atoms: _478  and  _479
REMARK  193  A    between atoms: _482  and  _484
REMARK  194  A    between atoms: _484  and  _485
REMARK  195  A    between atoms: _488  and  _490
REMARK  196  A    between atoms: _490  and  _491
REMARK  197  A    between atoms: _490  and  _493
REMARK  198  A    between atoms: _493  and  _494
REMARK  199  A    between atoms: _496  and  _498
REMARK  200  A    between atoms: _498  and  _499
REMARK  201  A    between atoms: _501  and  _503
REMARK  202  A    between atoms: _503  and  _504
REMARK  203  A    between atoms: _503  and  _506
REMARK  204  A    between atoms: _506  and  _507
REMARK  205  A    between atoms: _510  and  _512
REMARK  206  A    between atoms: _512  and  _513
REMARK  207  A    between atoms: _515  and  _517
REMARK  208  A    between atoms: _517  and  _518
REMARK  209  A    between atoms: _517  and  _520
REMARK  210  A    between atoms: _520  and  _521
REMARK  211  A    between atoms: _526  and  _528
REMARK  212  A    between atoms: _528  and  _529
REMARK  213  A    between atoms: _528  and  _531
REMARK  214  A    between atoms: _531  and  _532
REMARK  215  A    between atoms: _532  and  _533
REMARK  216  A    between atoms: _540  and  _541
REMARK  217  A    between atoms: _541  and  _557
REMARK  218  A    between atoms: _542  and  _544
REMARK  219  A    between atoms: _544  and  _545
REMARK  220  A    between atoms: _545  and  _546
REMARK  221  A    between atoms: _550  and  _552
REMARK  222  A    between atoms: _552  and  _553
REMARK  223  A    between atoms: _552  and  _560
REMARK  224  A    between atoms: _553  and  _554
REMARK  225  A    between atoms: _554  and  _555
REMARK  226  A    between atoms: _555  and  _556
REMARK  227  A    between atoms: _556  and  _557
REMARK  228  A    between atoms: _562  and  _564
REMARK  229  A    between atoms: _564  and  _565
REMARK  230  A    between atoms: _564  and  _567
REMARK  231  A    between atoms: _567  and  _568
REMARK  232  A    between atoms: _571  and  _573
REMARK  233  A    between atoms: _573  and  _574
REMARK  234  A    between atoms: _576  and  _578
REMARK  235  A    between atoms: _578  and  _579
REMARK  236  A    between atoms: _582  and  _584
REMARK  237  A    between atoms: _584  and  _585
REMARK  238  A    between atoms: _584  and  _587
REMARK  239  A    between atoms: _587  and  _588
REMARK  240  A    between atoms: _593  and  _594
REMARK                            x       y       z     vdW  Elec       q    Type
REMARK                         _______ _______ _______ _____ _____    ______ ____
ROOT
ATOM      1  O   HOH     1      36.820  22.265  17.968  0.00  0.00    +0.000 OA
ENDROOT
TORSDOF 0
REMARK  Name = ../refined-set-2016/3sym/3sym_pocket.pdb
REMARK  240 active torsions:
REMARK  status: ('A' for Active; 'I' for Inactive)
REMARK    1  A    between atoms: _1  and  _3
REMARK    2  A    between atoms: _3  and  _4
REMARK    3  A    between atoms: _3  and  _6
REMARK    4  A    between atoms: _6  and  _7
REMARK    5  A    between atoms: _12  and  _13
REMARK    6  A    between atoms: _15  and  _17
REMARK    7  A    between atoms: _17  and  _18
REMARK    8  A    between atoms: _17  and  _20
REMARK    9  A    between atoms: _20  and  _21
REMARK   10  A    between atoms: _21  and  _22
REMARK   11  A    between atoms: _25  and  _27
REMARK   12  A    between atoms: _27  and  _28
REMARK   13  A    between atoms: _27  and  _30
REMARK   14  A    between atoms: _30  and  _31
REMARK   15  A    between atoms: _36  and  _37
REMARK   16  A    between atoms: _39  and  _41
REMARK   17  A    between atoms: _41  and  _42
REMARK   18  A    between atoms: _44  and  _46
REMARK   19  A    between atoms: _46  and  _47
REMARK   20  A    between atoms: _46  and  _49
REMARK   21  A    between atoms: _49  and  _50
REMARK   22  A    between atoms: _55  and  _57
REMARK   23  A    between atoms: _57  and  _58
REMARK   24  A    between atoms: _60  and  _62
REMARK   25  A    between atoms: _62  and  _63
REMARK   26  A    between atoms: _65  and  _67
REMARK   27  A    between atoms: _67  and  _68
REMARK   28  A    between atoms: _67  and  _70
REMARK   29  A    between atoms: _70  and  _71
REMARK   30  A    between atoms: _74  and  _76
REMARK   31  A    between atoms: _76  and  _77
REMARK   32  A    between atoms: _79  and  _81
REMARK   33  A    between atoms: _81  and  _82
REMARK   34  A    between atoms: _81  and  _84
REMARK   35  A    between atoms: _85  and  _86
REMARK   36  A    between atoms: _86  and  _87
REMARK   37  A    between atoms: _96  and  _98
REMARK   38  A    between atoms: _98  and  _99
REMARK   39  A    between atoms: _98  and  _101
REMARK   40  A    between atoms: _101  and  _102
REMARK   41  A    between atoms: _105  and  _107
REMARK   42  A    between atoms: _107  and  _108
REMARK   43  A    between atoms: _111  and  _113
REMARK   44  A    between atoms: _113  and  _114
REMARK   45  A    between atoms: _113  and  _116
REMARK   46  A    between atoms: _116  and  _117
REMARK   47  A    between atoms: _123  and  _125
REMARK   48  A    between atoms: _125  and  _126
REMARK   49  A    between atoms: _125  and  _128
REMARK   50  A    between atoms: _128  and  _129
REMARK   51  A    between atoms: _134  and  _136
REMARK   52  A    between atoms: _136  and  _137
REMARK   53  A    between atoms: _136  and  _139
REMARK   54  A    between atoms: _139  and  _140
REMARK   55  A    between atoms: _143  and  _145
REMARK   56  A    between atoms: _145  and  _146
REMARK   57  A    between atoms: _145  and  _148
REMARK   58  A    between atoms: _148  and  _149
REMARK   59  A    between atoms: _154  and  _156
REMARK   60  A    between atoms: _156  and  _157
REMARK   61  A    between atoms: _156  and  _159
REMARK   62  A    between atoms: _159  and  _160
REMARK   63  A    between atoms: _166  and  _168
REMARK   64  A    between atoms: _168  and  _169
REMARK   65  A    between atoms: _168  and  _171
REMARK   66  A    between atoms: _171  and  _172
REMARK   67  A    between atoms: _178  and  _180
REMARK   68  A    between atoms: _180  and  _181
REMARK   69  A    between atoms: _180  and  _183
REMARK   70  A    between atoms: _183  and  _184
REMARK   71  A    between atoms: _184  and  _185
REMARK   72  A    between atoms: _185  and  _186
REMARK   73  A    between atoms: _195  and  _197
REMARK   74  A    between atoms: _197  and  _198
REMARK   75  A    between atoms: _197  and  _200
REMARK   76  A    between atoms: _200  and  _201
REMARK   77  A    between atoms: _206  and  _208
REMARK   78  A    between atoms: _208  and  _209
REMARK   79  A    between atoms: _208  and  _211
REMARK   80  A    between atoms: _211  and  _212
REMARK   81  A    between atoms: _215  and  _217
REMARK   82  A    between atoms: _217  and  _218
REMARK   83  A    between atoms: _217  and  _220
REMARK   84  A    between atoms: _220  and  _221
REMARK   85  A    between atoms: _224  and  _226
REMARK   86  A    between atoms: _226  and  _227
REMARK   87  A    between atoms: _226  and  _229
REMARK   88  A    between atoms: _229  and  _230
REMARK   89  A    between atoms: _235  and  _237
REMARK   90  A    between atoms: _237  and  _238
REMARK   91  A    between atoms: _237  and  _240
REMARK   92  A    between atoms: _240  and  _241
REMARK   93  A    between atoms: _244  and  _246
REMARK   94  A    between atoms: _246  and  _247
REMARK   95  A    between atoms: _246  and  _249
REMARK   96  A    between atoms: _249  and  _250
REMARK   97  A    between atoms: _255  and  _257
REMARK   98  A    between atoms: _257  and  _258
REMARK   99  A    between atoms: _257  and  _260
REMARK  100  A    between atoms: _260  and  _261
REMARK  101  A    between atoms: _266  and  _268
REMARK  102  A    between atoms: _268  and  _269
REMARK  103  A    between atoms: _268  and  _271
REMARK  104  A    between atoms: _271  and  _272
REMARK  105  A    between atoms: _275  and  _277
REMARK  106  A    between atoms: _277  and  _278
REMARK  107  A    between atoms: _277  and  _280
REMARK  108  A    between atoms: _283  and  _285
REMARK  109  A    between atoms: _285  and  _286
REMARK  110  A    between atoms: _285  and  _288
REMARK  111  A    between atoms: _288  and  _289
REMARK  112  A    between atoms: _292  and  _294
REMARK  113  A    between atoms: _294  and  _295
REMARK  114  A    between atoms: _298  and  _300
REMARK  115  A    between atoms: _300  and  _301
REMARK  116  A    between atoms: _300  and  _303
REMARK  117  A    between atoms: _303  and  _304
REMARK  118  A    between atoms: _307  and  _309
REMARK  119  A    between atoms: _309  and  _310
REMARK  120  A    between atoms: _309  and  _312
REMARK  121  A    between atoms: _312  and  _313
REMARK  122  A    between atoms: _318  and  _320
REMARK  123  A    between atoms: _320  and  _321
REMARK  124  A    between atoms: _323  and  _325
REMARK  125  A    between atoms: _325  and  _326
REMARK  126  A    between atoms: _325  and  _328
REMARK  127  A    between atoms: _331  and  _333
REMARK  128  A    between atoms: _333  and  _334
REMARK  129  A    between atoms: _337  and  _339
REMARK  130  A    between atoms: _339  and  _340
REMARK  131  A    between atoms: _339  and  _342
REMARK  132  A    between atoms: _342  and  _343
REMARK  133  A    between atoms: _348  and  _350
REMARK  134  A    between atoms: _350  and  _351
REMARK  135  A    between atoms: _350  and  _353
REMARK  136  A    between atoms: _353  and  _354
REMARK  137  A    between atoms: _354  and  _355
REMARK  138  A    between atoms: _355  and  _356
REMARK  139  A    between atoms: _356  and  _357
REMARK  140  A    between atoms: _361  and  _363
REMARK  141  A    between atoms: _363  and  _364
REMARK  142  A    between atoms: _363  and  _366
REMARK  143  A    between atoms: _366  and  _367
REMARK  144  A    between atoms: _370  and  _372
REMARK  145  A    between atoms: _372  and  _373
REMARK  146  A    between atoms: _372  and  _375
REMARK  147  A    between atoms: _375  and  _376
REMARK  148  A    between atoms: _381  and  _383
REMARK  149  A    between atoms: _383  and  _384
REMARK  150  A    between atoms: _386  and  _388
REMARK  151  A    between atoms: _388  and  _389
REMARK  152  A    between atoms: _388  and  _391
REMARK  153  A    between atoms: _391  and  _392
REMARK  154  A    between atoms: _392  and  _393
REMARK  155  A    between atoms: _393  and  _394
REMARK  156  A    between atoms: _394  and  _395
REMARK  157  A    between atoms: _399  and  _401
REMARK  158  A    between atoms: _401  and  _402
REMARK  159  A    between atoms: _401  and  _404
REMARK  160  A    between atoms: _404  and  _405
REMARK  161  A    between atoms: _405  and  _406
REMARK  162  A    between atoms: _406  and  _407
REMARK  163  A    between atoms: _416  and  _418
REMARK  164  A    between atoms: _418  and  _419
REMARK  165  A    between atoms: _418  and  _421
REMARK  166  A    between atoms: _421  and  _422
REMARK  167  A    between atoms: _427  and  _428
REMARK  168  A    between atoms: _430  and  _432
REMARK  169  A    between atoms: _432  and  _433
REMARK  170  A    between atoms: _432  and  _435
REMARK  171  A    between atoms: _435  and  _436
REMARK  172  A    between atoms: _436  and  _437
REMARK  173  A    between atoms: _437  and  _438
REMARK  174  A    between atoms: _438  and  _439
REMARK  175  A    between atoms: _443  and  _445
REMARK  176  A    between atoms: _445  and  _446
REMARK  177  A    between atoms: _445  and  _448
REMARK  178  A    between atoms: _448  and  _449
REMARK  179  A    between atoms: _449  and  _450
REMARK  180  A    between atoms: _455  and  _457
REMARK  181  A    between atoms: _457  and  _458
REMARK  182  A    between atoms: _457  and  _460
REMARK  183  A    between atoms: _460  and  _461
REMARK  184  A    between atoms: _463  and  _465
REMARK  185  A    between atoms: _465  and  _466
REMARK  186  A    between atoms: _465  and  _468
REMARK  187  A    between atoms: _468  and  _469
REMARK  188  A    between atoms: _472  and  _474
REMARK  189  A    between atoms: _474  and  _475
REMARK  190  A    between atoms: _474  and  _477
REMARK  191  A    between atoms: _477  and  _478
REMARK  192  A    between atoms: _478  and  _479
REMARK  193  A    between atoms: _482  and  _484
REMARK  194  A    between atoms: _484  and  _485
REMARK  195  A    between atoms: _488  and  _490
REMARK  196  A    between atoms: _490  and  _491
REMARK  197  A    between atoms: _490  and  _493
REMARK  198  A    between atoms: _493  and  _494
REMARK  199  A    between atoms: _496  and  _498
REMARK  200  A    between atoms: _498  and  _499
REMARK  201  A    between atoms: _501  and  _503
REMARK  202  A    between atoms: _503  and  _504
REMARK  203  A    between atoms: _503  and  _506
REMARK  204  A    between atoms: _506  and  _507
REMARK  205  A    between atoms: _510  and  _512
REMARK  206  A    between atoms: _512  and  _513
REMARK  207  A    between atoms: _515  and  _517
REMARK  208  A    between atoms: _517  and  _518
REMARK  209  A    between atoms: _517  and  _520
REMARK  210  A    between atoms: _520  and  _521
REMARK  211  A    between atoms: _526  and  _528
REMARK  212  A    between atoms: _528  and  _529
REMARK  213  A    between atoms: _528  and  _531
REMARK  214  A    between atoms: _531  and  _532
REMARK  215  A    between atoms: _532  and  _533
REMARK  216  A    between atoms: _540  and  _541
REMARK  217  A    between atoms: _541  and  _557
REMARK  218  A    between atoms: _542  and  _544
REMARK  219  A    between atoms: _544  and  _545
REMARK  220  A    between atoms: _545  and  _546
REMARK  221  A    between atoms: _550  and  _552
REMARK  222  A    between atoms: _552  and  _553
REMARK  223  A    between atoms: _552  and  _560
REMARK  224  A    between atoms: _553  and  _554
REMARK  225  A    between atoms: _554  and  _555
REMARK  226  A    between atoms: _555  and  _556
REMARK  227  A    between atoms: _556  and  _557
REMARK  228  A    between atoms: _562  and  _564
REMARK  229  A    between atoms: _564  and  _565
REMARK  230  A    between atoms: _564  and  _567
REMARK  231  A    between atoms: _567  and  _568
REMARK  232  A    between atoms: _571  and  _573
REMARK  233  A    between atoms: _573  and  _574
REMARK  234  A    between atoms: _576  and  _578
REMARK  235  A    between atoms: _578  and  _579
REMARK  236  A    between atoms: _582  and  _584
REMARK  237  A    between atoms: _584  and  _585
REMARK  238  A    between atoms: _584  and  _587
REMARK  239  A    between atoms: _587  and  _588
REMARK  240  A    between atoms: _593  and  _594
REMARK                            x       y       z     vdW  Elec       q    Type
REMARK                         _______ _______ _______ _____ _____    ______ ____
ROOT
ATOM      1  O   HOH     1      23.930  25.484  22.979  0.00  0.00    +0.000 OA
ENDROOT
TORSDOF 0
REMARK  Name = ../refined-set-2016/3sym/3sym_pocket.pdb
REMARK  240 active torsions:
REMARK  status: ('A' for Active; 'I' for Inactive)
REMARK    1  A    between atoms: _1  and  _3
REMARK    2  A    between atoms: _3  and  _4
REMARK    3  A    between atoms: _3  and  _6
REMARK    4  A    between atoms: _6  and  _7
REMARK    5  A    between atoms: _12  and  _13
REMARK    6  A    between atoms: _15  and  _17
REMARK    7  A    between atoms: _17  and  _18
REMARK    8  A    between atoms: _17  and  _20
REMARK    9  A    between atoms: _20  and  _21
REMARK   10  A    between atoms: _21  and  _22
REMARK   11  A    between atoms: _25  and  _27
REMARK   12  A    between atoms: _27  and  _28
REMARK   13  A    between atoms: _27  and  _30
REMARK   14  A    between atoms: _30  and  _31
REMARK   15  A    between atoms: _36  and  _37
REMARK   16  A    between atoms: _39  and  _41
REMARK   17  A    between atoms: _41  and  _42
REMARK   18  A    between atoms: _44  and  _46
REMARK   19  A    between atoms: _46  and  _47
REMARK   20  A    between atoms: _46  and  _49
REMARK   21  A    between atoms: _49  and  _50
REMARK   22  A    between atoms: _55  and  _57
REMARK   23  A    between atoms: _57  and  _58
REMARK   24  A    between atoms: _60  and  _62
REMARK   25  A    between atoms: _62  and  _63
REMARK   26  A    between atoms: _65  and  _67
REMARK   27  A    between atoms: _67  and  _68
REMARK   28  A    between atoms: _67  and  _70
REMARK   29  A    between atoms: _70  and  _71
REMARK   30  A    between atoms: _74  and  _76
REMARK   31  A    between atoms: _76  and  _77
REMARK   32  A    between atoms: _79  and  _81
REMARK   33  A    between atoms: _81  and  _82
REMARK   34  A    between atoms: _81  and  _84
REMARK   35  A    between atoms: _85  and  _86
REMARK   36  A    between atoms: _86  and  _87
REMARK   37  A    between atoms: _96  and  _98
REMARK   38  A    between atoms: _98  and  _99
REMARK   39  A    between atoms: _98  and  _101
REMARK   40  A    between atoms: _101  and  _102
REMARK   41  A    between atoms: _105  and  _107
REMARK   42  A    between atoms: _107  and  _108
REMARK   43  A    between atoms: _111  and  _113
REMARK   44  A    between atoms: _113  and  _114
REMARK   45  A    between atoms: _113  and  _116
REMARK   46  A    between atoms: _116  and  _117
REMARK   47  A    between atoms: _123  and  _125
REMARK   48  A    between atoms: _125  and  _126
REMARK   49  A    between atoms: _125  and  _128
REMARK   50  A    between atoms: _128  and  _129
REMARK   51  A    between atoms: _134  and  _136
REMARK   52  A    between atoms: _136  and  _137
REMARK   53  A    between atoms: _136  and  _139
REMARK   54  A    between atoms: _139  and  _140
REMARK   55  A    between atoms: _143  and  _145
REMARK   56  A    between atoms: _145  and  _146
REMARK   57  A    between atoms: _145  and  _148
REMARK   58  A    between atoms: _148  and  _149
REMARK   59  A    between atoms: _154  and  _156
REMARK   60  A    between atoms: _156  and  _157
REMARK   61  A    between atoms: _156  and  _159
REMARK   62  A    between atoms: _159  and  _160
REMARK   63  A    between atoms: _166  and  _168
REMARK   64  A    between atoms: _168  and  _169
REMARK   65  A    between atoms: _168  and  _171
REMARK   66  A    between atoms: _171  and  _172
REMARK   67  A    between atoms: _178  and  _180
REMARK   68  A    between atoms: _180  and  _181
REMARK   69  A    between atoms: _180  and  _183
REMARK   70  A    between atoms: _183  and  _184
REMARK   71  A    between atoms: _184  and  _185
REMARK   72  A    between atoms: _185  and  _186
REMARK   73  A    between atoms: _195  and  _197
REMARK   74  A    between atoms: _197  and  _198
REMARK   75  A    between atoms: _197  and  _200
REMARK   76  A    between atoms: _200  and  _201
REMARK   77  A    between atoms: _206  and  _208
REMARK   78  A    between atoms: _208  and  _209
REMARK   79  A    between atoms: _208  and  _211
REMARK   80  A    between atoms: _211  and  _212
REMARK   81  A    between atoms: _215  and  _217
REMARK   82  A    between atoms: _217  and  _218
REMARK   83  A    between atoms: _217  and  _220
REMARK   84  A    between atoms: _220  and  _221
REMARK   85  A    between atoms: _224  and  _226
REMARK   86  A    between atoms: _226  and  _227
REMARK   87  A    between atoms: _226  and  _229
REMARK   88  A    between atoms: _229  and  _230
REMARK   89  A    between atoms: _235  and  _237
REMARK   90  A    between atoms: _237  and  _238
REMARK   91  A    between atoms: _237  and  _240
REMARK   92  A    between atoms: _240  and  _241
REMARK   93  A    between atoms: _244  and  _246
REMARK   94  A    between atoms: _246  and  _247
REMARK   95  A    between atoms: _246  and  _249
REMARK   96  A    between atoms: _249  and  _250
REMARK   97  A    between atoms: _255  and  _257
REMARK   98  A    between atoms: _257  and  _258
REMARK   99  A    between atoms: _257  and  _260
REMARK  100  A    between atoms: _260  and  _261
REMARK  101  A    between atoms: _266  and  _268
REMARK  102  A    between atoms: _268  and  _269
REMARK  103  A    between atoms: _268  and  _271
REMARK  104  A    between atoms: _271  and  _272
REMARK  105  A    between atoms: _275  and  _277
REMARK  106  A    between atoms: _277  and  _278
REMARK  107  A    between atoms: _277  and  _280
REMARK  108  A    between atoms: _283  and  _285
REMARK  109  A    between atoms: _285  and  _286
REMARK  110  A    between atoms: _285  and  _288
REMARK  111  A    between atoms: _288  and  _289
REMARK  112  A    between atoms: _292  and  _294
REMARK  113  A    between atoms: _294  and  _295
REMARK  114  A    between atoms: _298  and  _300
REMARK  115  A    between atoms: _300  and  _301
REMARK  116  A    between atoms: _300  and  _303
REMARK  117  A    between atoms: _303  and  _304
REMARK  118  A    between atoms: _307  and  _309
REMARK  119  A    between atoms: _309  and  _310
REMARK  120  A    between atoms: _309  and  _312
REMARK  121  A    between atoms: _312  and  _313
REMARK  122  A    between atoms: _318  and  _320
REMARK  123  A    between atoms: _320  and  _321
REMARK  124  A    between atoms: _323  and  _325
REMARK  125  A    between atoms: _325  and  _326
REMARK  126  A    between atoms: _325  and  _328
REMARK  127  A    between atoms: _331  and  _333
REMARK  128  A    between atoms: _333  and  _334
REMARK  129  A    between atoms: _337  and  _339
REMARK  130  A    between atoms: _339  and  _340
REMARK  131  A    between atoms: _339  and  _342
REMARK  132  A    between atoms: _342  and  _343
REMARK  133  A    between atoms: _348  and  _350
REMARK  134  A    between atoms: _350  and  _351
REMARK  135  A    between atoms: _350  and  _353
REMARK  136  A    between atoms: _353  and  _354
REMARK  137  A    between atoms: _354  and  _355
REMARK  138  A    between atoms: _355  and  _356
REMARK  139  A    between atoms: _356  and  _357
REMARK  140  A    between atoms: _361  and  _363
REMARK  141  A    between atoms: _363  and  _364
REMARK  142  A    between atoms: _363  and  _366
REMARK  143  A    between atoms: _366  and  _367
REMARK  144  A    between atoms: _370  and  _372
REMARK  145  A    between atoms: _372  and  _373
REMARK  146  A    between atoms: _372  and  _375
REMARK  147  A    between atoms: _375  and  _376
REMARK  148  A    between atoms: _381  and  _383
REMARK  149  A    between atoms: _383  and  _384
REMARK  150  A    between atoms: _386  and  _388
REMARK  151  A    between atoms: _388  and  _389
REMARK  152  A    between atoms: _388  and  _391
REMARK  153  A    between atoms: _391  and  _392
REMARK  154  A    between atoms: _392  and  _393
REMARK  155  A    between atoms: _393  and  _394
REMARK  156  A    between atoms: _394  and  _395
REMARK  157  A    between atoms: _399  and  _401
REMARK  158  A    between atoms: _401  and  _402
REMARK  159  A    between atoms: _401  and  _404
REMARK  160  A    between atoms: _404  and  _405
REMARK  161  A    between atoms: _405  and  _406
REMARK  162  A    between atoms: _406  and  _407
REMARK  163  A    between atoms: _416  and  _418
REMARK  164  A    between atoms: _418  and  _419
REMARK  165  A    between atoms: _418  and  _421
REMARK  166  A    between atoms: _421  and  _422
REMARK  167  A    between atoms: _427  and  _428
REMARK  168  A    between atoms: _430  and  _432
REMARK  169  A    between atoms: _432  and  _433
REMARK  170  A    between atoms: _432  and  _435
REMARK  171  A    between atoms: _435  and  _436
REMARK  172  A    between atoms: _436  and  _437
REMARK  173  A    between atoms: _437  and  _438
REMARK  174  A    between atoms: _438  and  _439
REMARK  175  A    between atoms: _443  and  _445
REMARK  176  A    between atoms: _445  and  _446
REMARK  177  A    between atoms: _445  and  _448
REMARK  178  A    between atoms: _448  and  _449
REMARK  179  A    between atoms: _449  and  _450
REMARK  180  A    between atoms: _455  and  _457
REMARK  181  A    between atoms: _457  and  _458
REMARK  182  A    between atoms: _457  and  _460
REMARK  183  A    between atoms: _460  and  _461
REMARK  184  A    between atoms: _463  and  _465
REMARK  185  A    between atoms: _465  and  _466
REMARK  186  A    between atoms: _465  and  _468
REMARK  187  A    between atoms: _468  and  _469
REMARK  188  A    between atoms: _472  and  _474
REMARK  189  A    between atoms: _474  and  _475
REMARK  190  A    between atoms: _474  and  _477
REMARK  191  A    between atoms: _477  and  _478
REMARK  192  A    between atoms: _478  and  _479
REMARK  193  A    between atoms: _482  and  _484
REMARK  194  A    between atoms: _484  and  _485
REMARK  195  A    between atoms: _488  and  _490
REMARK  196  A    between atoms: _490  and  _491
REMARK  197  A    between atoms: _490  and  _493
REMARK  198  A    between atoms: _493  and  _494
REMARK  199  A    between atoms: _496  and  _498
REMARK  200  A    between atoms: _498  and  _499
REMARK  201  A    between atoms: _501  and  _503
REMARK  202  A    between atoms: _503  and  _504
REMARK  203  A    between atoms: _503  and  _506
REMARK  204  A    between atoms: _506  and  _507
REMARK  205  A    between atoms: _510  and  _512
REMARK  206  A    between atoms: _512  and  _513
REMARK  207  A    between atoms: _515  and  _517
REMARK  208  A    between atoms: _517  and  _518
REMARK  209  A    between atoms: _517  and  _520
REMARK  210  A    between atoms: _520  and  _521
REMARK  211  A    between atoms: _526  and  _528
REMARK  212  A    between atoms: _528  and  _529
REMARK  213  A    between atoms: _528  and  _531
REMARK  214  A    between atoms: _531  and  _532
REMARK  215  A    between atoms: _532  and  _533
REMARK  216  A    between atoms: _540  and  _541
REMARK  217  A    between atoms: _541  and  _557
REMARK  218  A    between atoms: _542  and  _544
REMARK  219  A    between atoms: _544  and  _545
REMARK  220  A    between atoms: _545  and  _546
REMARK  221  A    between atoms: _550  and  _552
REMARK  222  A    between atoms: _552  and  _553
REMARK  223  A    between atoms: _552  and  _560
REMARK  224  A    between atoms: _553  and  _554
REMARK  225  A    between atoms: _554  and  _555
REMARK  226  A    between atoms: _555  and  _556
REMARK  227  A    between atoms: _556  and  _557
REMARK  228  A    between atoms: _562  and  _564
REMARK  229  A    between atoms: _564  and  _565
REMARK  230  A    between atoms: _564  and  _567
REMARK  231  A    between atoms: _567  and  _568
REMARK  232  A    between atoms: _571  and  _573
REMARK  233  A    between atoms: _573  and  _574
REMARK  234  A    between atoms: _576  and  _578
REMARK  235  A    between atoms: _578  and  _579
REMARK  236  A    between atoms: _582  and  _584
REMARK  237  A    between atoms: _584  and  _585
REMARK  238  A    between atoms: _584  and  _587
REMARK  239  A    between atoms: _587  and  _588
REMARK  240  A    between atoms: _593  and  _594
REMARK                            x       y       z     vdW  Elec       q    Type
REMARK                         _______ _______ _______ _____ _____    ______ ____
ROOT
ATOM      1  O   HOH     1      23.543  25.744  26.529  0.00  0.00    +0.000 OA
ENDROOT
TORSDOF 0
REMARK  Name = ../refined-set-2016/3sym/3sym_pocket.pdb
REMARK  240 active torsions:
REMARK  status: ('A' for Active; 'I' for Inactive)
REMARK    1  A    between atoms: _1  and  _3
REMARK    2  A    between atoms: _3  and  _4
REMARK    3  A    between atoms: _3  and  _6
REMARK    4  A    between atoms: _6  and  _7
REMARK    5  A    between atoms: _12  and  _13
REMARK    6  A    between atoms: _15  and  _17
REMARK    7  A    between atoms: _17  and  _18
REMARK    8  A    between atoms: _17  and  _20
REMARK    9  A    between atoms: _20  and  _21
REMARK   10  A    between atoms: _21  and  _22
REMARK   11  A    between atoms: _25  and  _27
REMARK   12  A    between atoms: _27  and  _28
REMARK   13  A    between atoms: _27  and  _30
REMARK   14  A    between atoms: _30  and  _31
REMARK   15  A    between atoms: _36  and  _37
REMARK   16  A    between atoms: _39  and  _41
REMARK   17  A    between atoms: _41  and  _42
REMARK   18  A    between atoms: _44  and  _46
REMARK   19  A    between atoms: _46  and  _47
REMARK   20  A    between atoms: _46  and  _49
REMARK   21  A    between atoms: _49  and  _50
REMARK   22  A    between atoms: _55  and  _57
REMARK   23  A    between atoms: _57  and  _58
REMARK   24  A    between atoms: _60  and  _62
REMARK   25  A    between atoms: _62  and  _63
REMARK   26  A    between atoms: _65  and  _67
REMARK   27  A    between atoms: _67  and  _68
REMARK   28  A    between atoms: _67  and  _70
REMARK   29  A    between atoms: _70  and  _71
REMARK   30  A    between atoms: _74  and  _76
REMARK   31  A    between atoms: _76  and  _77
REMARK   32  A    between atoms: _79  and  _81
REMARK   33  A    between atoms: _81  and  _82
REMARK   34  A    between atoms: _81  and  _84
REMARK   35  A    between atoms: _85  and  _86
REMARK   36  A    between atoms: _86  and  _87
REMARK   37  A    between atoms: _96  and  _98
REMARK   38  A    between atoms: _98  and  _99
REMARK   39  A    between atoms: _98  and  _101
REMARK   40  A    between atoms: _101  and  _102
REMARK   41  A    between atoms: _105  and  _107
REMARK   42  A    between atoms: _107  and  _108
REMARK   43  A    between atoms: _111  and  _113
REMARK   44  A    between atoms: _113  and  _114
REMARK   45  A    between atoms: _113  and  _116
REMARK   46  A    between atoms: _116  and  _117
REMARK   47  A    between atoms: _123  and  _125
REMARK   48  A    between atoms: _125  and  _126
REMARK   49  A    between atoms: _125  and  _128
REMARK   50  A    between atoms: _128  and  _129
REMARK   51  A    between atoms: _134  and  _136
REMARK   52  A    between atoms: _136  and  _137
REMARK   53  A    between atoms: _136  and  _139
REMARK   54  A    between atoms: _139  and  _140
REMARK   55  A    between atoms: _143  and  _145
REMARK   56  A    between atoms: _145  and  _146
REMARK   57  A    between atoms: _145  and  _148
REMARK   58  A    between atoms: _148  and  _149
REMARK   59  A    between atoms: _154  and  _156
REMARK   60  A    between atoms: _156  and  _157
REMARK   61  A    between atoms: _156  and  _159
REMARK   62  A    between atoms: _159  and  _160
REMARK   63  A    between atoms: _166  and  _168
REMARK   64  A    between atoms: _168  and  _169
REMARK   65  A    between atoms: _168  and  _171
REMARK   66  A    between atoms: _171  and  _172
REMARK   67  A    between atoms: _178  and  _180
REMARK   68  A    between atoms: _180  and  _181
REMARK   69  A    between atoms: _180  and  _183
REMARK   70  A    between atoms: _183  and  _184
REMARK   71  A    between atoms: _184  and  _185
REMARK   72  A    between atoms: _185  and  _186
REMARK   73  A    between atoms: _195  and  _197
REMARK   74  A    between atoms: _197  and  _198
REMARK   75  A    between atoms: _197  and  _200
REMARK   76  A    between atoms: _200  and  _201
REMARK   77  A    between atoms: _206  and  _208
REMARK   78  A    between atoms: _208  and  _209
REMARK   79  A    between atoms: _208  and  _211
REMARK   80  A    between atoms: _211  and  _212
REMARK   81  A    between atoms: _215  and  _217
REMARK   82  A    between atoms: _217  and  _218
REMARK   83  A    between atoms: _217  and  _220
REMARK   84  A    between atoms: _220  and  _221
REMARK   85  A    between atoms: _224  and  _226
REMARK   86  A    between atoms: _226  and  _227
REMARK   87  A    between atoms: _226  and  _229
REMARK   88  A    between atoms: _229  and  _230
REMARK   89  A    between atoms: _235  and  _237
REMARK   90  A    between atoms: _237  and  _238
REMARK   91  A    between atoms: _237  and  _240
REMARK   92  A    between atoms: _240  and  _241
REMARK   93  A    between atoms: _244  and  _246
REMARK   94  A    between atoms: _246  and  _247
REMARK   95  A    between atoms: _246  and  _249
REMARK   96  A    between atoms: _249  and  _250
REMARK   97  A    between atoms: _255  and  _257
REMARK   98  A    between atoms: _257  and  _258
REMARK   99  A    between atoms: _257  and  _260
REMARK  100  A    between atoms: _260  and  _261
REMARK  101  A    between atoms: _266  and  _268
REMARK  102  A    between atoms: _268  and  _269
REMARK  103  A    between atoms: _268  and  _271
REMARK  104  A    between atoms: _271  and  _272
REMARK  105  A    between atoms: _275  and  _277
REMARK  106  A    between atoms: _277  and  _278
REMARK  107  A    between atoms: _277  and  _280
REMARK  108  A    between atoms: _283  and  _285
REMARK  109  A    between atoms: _285  and  _286
REMARK  110  A    between atoms: _285  and  _288
REMARK  111  A    between atoms: _288  and  _289
REMARK  112  A    between atoms: _292  and  _294
REMARK  113  A    between atoms: _294  and  _295
REMARK  114  A    between atoms: _298  and  _300
REMARK  115  A    between atoms: _300  and  _301
REMARK  116  A    between atoms: _300  and  _303
REMARK  117  A    between atoms: _303  and  _304
REMARK  118  A    between atoms: _307  and  _309
REMARK  119  A    between atoms: _309  and  _310
REMARK  120  A    between atoms: _309  and  _312
REMARK  121  A    between atoms: _312  and  _313
REMARK  122  A    between atoms: _318  and  _320
REMARK  123  A    between atoms: _320  and  _321
REMARK  124  A    between atoms: _323  and  _325
REMARK  125  A    between atoms: _325  and  _326
REMARK  126  A    between atoms: _325  and  _328
REMARK  127  A    between atoms: _331  and  _333
REMARK  128  A    between atoms: _333  and  _334
REMARK  129  A    between atoms: _337  and  _339
REMARK  130  A    between atoms: _339  and  _340
REMARK  131  A    between atoms: _339  and  _342
REMARK  132  A    between atoms: _342  and  _343
REMARK  133  A    between atoms: _348  and  _350
REMARK  134  A    between atoms: _350  and  _351
REMARK  135  A    between atoms: _350  and  _353
REMARK  136  A    between atoms: _353  and  _354
REMARK  137  A    between atoms: _354  and  _355
REMARK  138  A    between atoms: _355  and  _356
REMARK  139  A    between atoms: _356  and  _357
REMARK  140  A    between atoms: _361  and  _363
REMARK  141  A    between atoms: _363  and  _364
REMARK  142  A    between atoms: _363  and  _366
REMARK  143  A    between atoms: _366  and  _367
REMARK  144  A    between atoms: _370  and  _372
REMARK  145  A    between atoms: _372  and  _373
REMARK  146  A    between atoms: _372  and  _375
REMARK  147  A    between atoms: _375  and  _376
REMARK  148  A    between atoms: _381  and  _383
REMARK  149  A    between atoms: _383  and  _384
REMARK  150  A    between atoms: _386  and  _388
REMARK  151  A    between atoms: _388  and  _389
REMARK  152  A    between atoms: _388  and  _391
REMARK  153  A    between atoms: _391  and  _392
REMARK  154  A    between atoms: _392  and  _393
REMARK  155  A    between atoms: _393  and  _394
REMARK  156  A    between atoms: _394  and  _395
REMARK  157  A    between atoms: _399  and  _401
REMARK  158  A    between atoms: _401  and  _402
REMARK  159  A    between atoms: _401  and  _404
REMARK  160  A    between atoms: _404  and  _405
REMARK  161  A    between atoms: _405  and  _406
REMARK  162  A    between atoms: _406  and  _407
REMARK  163  A    between atoms: _416  and  _418
REMARK  164  A    between atoms: _418  and  _419
REMARK  165  A    between atoms: _418  and  _421
REMARK  166  A    between atoms: _421  and  _422
REMARK  167  A    between atoms: _427  and  _428
REMARK  168  A    between atoms: _430  and  _432
REMARK  169  A    between atoms: _432  and  _433
REMARK  170  A    between atoms: _432  and  _435
REMARK  171  A    between atoms: _435  and  _436
REMARK  172  A    between atoms: _436  and  _437
REMARK  173  A    between atoms: _437  and  _438
REMARK  174  A    between atoms: _438  and  _439
REMARK  175  A    between atoms: _443  and  _445
REMARK  176  A    between atoms: _445  and  _446
REMARK  177  A    between atoms: _445  and  _448
REMARK  178  A    between atoms: _448  and  _449
REMARK  179  A    between atoms: _449  and  _450
REMARK  180  A    between atoms: _455  and  _457
REMARK  181  A    between atoms: _457  and  _458
REMARK  182  A    between atoms: _457  and  _460
REMARK  183  A    between atoms: _460  and  _461
REMARK  184  A    between atoms: _463  and  _465
REMARK  185  A    between atoms: _465  and  _466
REMARK  186  A    between atoms: _465  and  _468
REMARK  187  A    between atoms: _468  and  _469
REMARK  188  A    between atoms: _472  and  _474
REMARK  189  A    between atoms: _474  and  _475
REMARK  190  A    between atoms: _474  and  _477
REMARK  191  A    between atoms: _477  and  _478
REMARK  192  A    between atoms: _478  and  _479
REMARK  193  A    between atoms: _482  and  _484
REMARK  194  A    between atoms: _484  and  _485
REMARK  195  A    between atoms: _488  and  _490
REMARK  196  A    between atoms: _490  and  _491
REMARK  197  A    between atoms: _490  and  _493
REMARK  198  A    between atoms: _493  and  _494
REMARK  199  A    between atoms: _496  and  _498
REMARK  200  A    between atoms: _498  and  _499
REMARK  201  A    between atoms: _501  and  _503
REMARK  202  A    between atoms: _503  and  _504
REMARK  203  A    between atoms: _503  and  _506
REMARK  204  A    between atoms: _506  and  _507
REMARK  205  A    between atoms: _510  and  _512
REMARK  206  A    between atoms: _512  and  _513
REMARK  207  A    between atoms: _515  and  _517
REMARK  208  A    between atoms: _517  and  _518
REMARK  209  A    between atoms: _517  and  _520
REMARK  210  A    between atoms: _520  and  _521
REMARK  211  A    between atoms: _526  and  _528
REMARK  212  A    between atoms: _528  and  _529
REMARK  213  A    between atoms: _528  and  _531
REMARK  214  A    between atoms: _531  and  _532
REMARK  215  A    between atoms: _532  and  _533
REMARK  216  A    between atoms: _540  and  _541
REMARK  217  A    between atoms: _541  and  _557
REMARK  218  A    between atoms: _542  and  _544
REMARK  219  A    between atoms: _544  and  _545
REMARK  220  A    between atoms: _545  and  _546
REMARK  221  A    between atoms: _550  and  _552
REMARK  222  A    between atoms: _552  and  _553
REMARK  223  A    between atoms: _552  and  _560
REMARK  224  A    between atoms: _553  and  _554
REMARK  225  A    between atoms: _554  and  _555
REMARK  226  A    between atoms: _555  and  _556
REMARK  227  A    between atoms: _556  and  _557
REMARK  228  A    between atoms: _562  and  _564
REMARK  229  A    between atoms: _564  and  _565
REMARK  230  A    between atoms: _564  and  _567
REMARK  231  A    between atoms: _567  and  _568
REMARK  232  A    between atoms: _571  and  _573
REMARK  233  A    between atoms: _573  and  _574
REMARK  234  A    between atoms: _576  and  _578
REMARK  235  A    between atoms: _578  and  _579
REMARK  236  A    between atoms: _582  and  _584
REMARK  237  A    between atoms: _584  and  _585
REMARK  238  A    between atoms: _584  and  _587
REMARK  239  A    between atoms: _587  and  _588
REMARK  240  A    between atoms: _593  and  _594
REMARK                            x       y       z     vdW  Elec       q    Type
REMARK                         _______ _______ _______ _____ _____    ______ ____
ROOT
ATOM      1  O   HOH     1      25.540  27.693  31.897  0.00  0.00    +0.000 OA
ENDROOT
TORSDOF 0
REMARK  Name = ../refined-set-2016/3sym/3sym_pocket.pdb
REMARK  240 active torsions:
REMARK  status: ('A' for Active; 'I' for Inactive)
REMARK    1  A    between atoms: _1  and  _3
REMARK    2  A    between atoms: _3  and  _4
REMARK    3  A    between atoms: _3  and  _6
REMARK    4  A    between atoms: _6  and  _7
REMARK    5  A    between atoms: _12  and  _13
REMARK    6  A    between atoms: _15  and  _17
REMARK    7  A    between atoms: _17  and  _18
REMARK    8  A    between atoms: _17  and  _20
REMARK    9  A    between atoms: _20  and  _21
REMARK   10  A    between atoms: _21  and  _22
REMARK   11  A    between atoms: _25  and  _27
REMARK   12  A    between atoms: _27  and  _28
REMARK   13  A    between atoms: _27  and  _30
REMARK   14  A    between atoms: _30  and  _31
REMARK   15  A    between atoms: _36  and  _37
REMARK   16  A    between atoms: _39  and  _41
REMARK   17  A    between atoms: _41  and  _42
REMARK   18  A    between atoms: _44  and  _46
REMARK   19  A    between atoms: _46  and  _47
REMARK   20  A    between atoms: _46  and  _49
REMARK   21  A    between atoms: _49  and  _50
REMARK   22  A    between atoms: _55  and  _57
REMARK   23  A    between atoms: _57  and  _58
REMARK   24  A    between atoms: _60  and  _62
REMARK   25  A    between atoms: _62  and  _63
REMARK   26  A    between atoms: _65  and  _67
REMARK   27  A    between atoms: _67  and  _68
REMARK   28  A    between atoms: _67  and  _70
REMARK   29  A    between atoms: _70  and  _71
REMARK   30  A    between atoms: _74  and  _76
REMARK   31  A    between atoms: _76  and  _77
REMARK   32  A    between atoms: _79  and  _81
REMARK   33  A    between atoms: _81  and  _82
REMARK   34  A    between atoms: _81  and  _84
REMARK   35  A    between atoms: _85  and  _86
REMARK   36  A    between atoms: _86  and  _87
REMARK   37  A    between atoms: _96  and  _98
REMARK   38  A    between atoms: _98  and  _99
REMARK   39  A    between atoms: _98  and  _101
REMARK   40  A    between atoms: _101  and  _102
REMARK   41  A    between atoms: _105  and  _107
REMARK   42  A    between atoms: _107  and  _108
REMARK   43  A    between atoms: _111  and  _113
REMARK   44  A    between atoms: _113  and  _114
REMARK   45  A    between atoms: _113  and  _116
REMARK   46  A    between atoms: _116  and  _117
REMARK   47  A    between atoms: _123  and  _125
REMARK   48  A    between atoms: _125  and  _126
REMARK   49  A    between atoms: _125  and  _128
REMARK   50  A    between atoms: _128  and  _129
REMARK   51  A    between atoms: _134  and  _136
REMARK   52  A    between atoms: _136  and  _137
REMARK   53  A    between atoms: _136  and  _139
REMARK   54  A    between atoms: _139  and  _140
REMARK   55  A    between atoms: _143  and  _145
REMARK   56  A    between atoms: _145  and  _146
REMARK   57  A    between atoms: _145  and  _148
REMARK   58  A    between atoms: _148  and  _149
REMARK   59  A    between atoms: _154  and  _156
REMARK   60  A    between atoms: _156  and  _157
REMARK   61  A    between atoms: _156  and  _159
REMARK   62  A    between atoms: _159  and  _160
REMARK   63  A    between atoms: _166  and  _168
REMARK   64  A    between atoms: _168  and  _169
REMARK   65  A    between atoms: _168  and  _171
REMARK   66  A    between atoms: _171  and  _172
REMARK   67  A    between atoms: _178  and  _180
REMARK   68  A    between atoms: _180  and  _181
REMARK   69  A    between atoms: _180  and  _183
REMARK   70  A    between atoms: _183  and  _184
REMARK   71  A    between atoms: _184  and  _185
REMARK   72  A    between atoms: _185  and  _186
REMARK   73  A    between atoms: _195  and  _197
REMARK   74  A    between atoms: _197  and  _198
REMARK   75  A    between atoms: _197  and  _200
REMARK   76  A    between atoms: _200  and  _201
REMARK   77  A    between atoms: _206  and  _208
REMARK   78  A    between atoms: _208  and  _209
REMARK   79  A    between atoms: _208  and  _211
REMARK   80  A    between atoms: _211  and  _212
REMARK   81  A    between atoms: _215  and  _217
REMARK   82  A    between atoms: _217  and  _218
REMARK   83  A    between atoms: _217  and  _220
REMARK   84  A    between atoms: _220  and  _221
REMARK   85  A    between atoms: _224  and  _226
REMARK   86  A    between atoms: _226  and  _227
REMARK   87  A    between atoms: _226  and  _229
REMARK   88  A    between atoms: _229  and  _230
REMARK   89  A    between atoms: _235  and  _237
REMARK   90  A    between atoms: _237  and  _238
REMARK   91  A    between atoms: _237  and  _240
REMARK   92  A    between atoms: _240  and  _241
REMARK   93  A    between atoms: _244  and  _246
REMARK   94  A    between atoms: _246  and  _247
REMARK   95  A    between atoms: _246  and  _249
REMARK   96  A    between atoms: _249  and  _250
REMARK   97  A    between atoms: _255  and  _257
REMARK   98  A    between atoms: _257  and  _258
REMARK   99  A    between atoms: _257  and  _260
REMARK  100  A    between atoms: _260  and  _261
REMARK  101  A    between atoms: _266  and  _268
REMARK  102  A    between atoms: _268  and  _269
REMARK  103  A    between atoms: _268  and  _271
REMARK  104  A    between atoms: _271  and  _272
REMARK  105  A    between atoms: _275  and  _277
REMARK  106  A    between atoms: _277  and  _278
REMARK  107  A    between atoms: _277  and  _280
REMARK  108  A    between atoms: _283  and  _285
REMARK  109  A    between atoms: _285  and  _286
REMARK  110  A    between atoms: _285  and  _288
REMARK  111  A    between atoms: _288  and  _289
REMARK  112  A    between atoms: _292  and  _294
REMARK  113  A    between atoms: _294  and  _295
REMARK  114  A    between atoms: _298  and  _300
REMARK  115  A    between atoms: _300  and  _301
REMARK  116  A    between atoms: _300  and  _303
REMARK  117  A    between atoms: _303  and  _304
REMARK  118  A    between atoms: _307  and  _309
REMARK  119  A    between atoms: _309  and  _310
REMARK  120  A    between atoms: _309  and  _312
REMARK  121  A    between atoms: _312  and  _313
REMARK  122  A    between atoms: _318  and  _320
REMARK  123  A    between atoms: _320  and  _321
REMARK  124  A    between atoms: _323  and  _325
REMARK  125  A    between atoms: _325  and  _326
REMARK  126  A    between atoms: _325  and  _328
REMARK  127  A    between atoms: _331  and  _333
REMARK  128  A    between atoms: _333  and  _334
REMARK  129  A    between atoms: _337  and  _339
REMARK  130  A    between atoms: _339  and  _340
REMARK  131  A    between atoms: _339  and  _342
REMARK  132  A    between atoms: _342  and  _343
REMARK  133  A    between atoms: _348  and  _350
REMARK  134  A    between atoms: _350  and  _351
REMARK  135  A    between atoms: _350  and  _353
REMARK  136  A    between atoms: _353  and  _354
REMARK  137  A    between atoms: _354  and  _355
REMARK  138  A    between atoms: _355  and  _356
REMARK  139  A    between atoms: _356  and  _357
REMARK  140  A    between atoms: _361  and  _363
REMARK  141  A    between atoms: _363  and  _364
REMARK  142  A    between atoms: _363  and  _366
REMARK  143  A    between atoms: _366  and  _367
REMARK  144  A    between atoms: _370  and  _372
REMARK  145  A    between atoms: _372  and  _373
REMARK  146  A    between atoms: _372  and  _375
REMARK  147  A    between atoms: _375  and  _376
REMARK  148  A    between atoms: _381  and  _383
REMARK  149  A    between atoms: _383  and  _384
REMARK  150  A    between atoms: _386  and  _388
REMARK  151  A    between atoms: _388  and  _389
REMARK  152  A    between atoms: _388  and  _391
REMARK  153  A    between atoms: _391  and  _392
REMARK  154  A    between atoms: _392  and  _393
REMARK  155  A    between atoms: _393  and  _394
REMARK  156  A    between atoms: _394  and  _395
REMARK  157  A    between atoms: _399  and  _401
REMARK  158  A    between atoms: _401  and  _402
REMARK  159  A    between atoms: _401  and  _404
REMARK  160  A    between atoms: _404  and  _405
REMARK  161  A    between atoms: _405  and  _406
REMARK  162  A    between atoms: _406  and  _407
REMARK  163  A    between atoms: _416  and  _418
REMARK  164  A    between atoms: _418  and  _419
REMARK  165  A    between atoms: _418  and  _421
REMARK  166  A    between atoms: _421  and  _422
REMARK  167  A    between atoms: _427  and  _428
REMARK  168  A    between atoms: _430  and  _432
REMARK  169  A    between atoms: _432  and  _433
REMARK  170  A    between atoms: _432  and  _435
REMARK  171  A    between atoms: _435  and  _436
REMARK  172  A    between atoms: _436  and  _437
REMARK  173  A    between atoms: _437  and  _438
REMARK  174  A    between atoms: _438  and  _439
REMARK  175  A    between atoms: _443  and  _445
REMARK  176  A    between atoms: _445  and  _446
REMARK  177  A    between atoms: _445  and  _448
REMARK  178  A    between atoms: _448  and  _449
REMARK  179  A    between atoms: _449  and  _450
REMARK  180  A    between atoms: _455  and  _457
REMARK  181  A    between atoms: _457  and  _458
REMARK  182  A    between atoms: _457  and  _460
REMARK  183  A    between atoms: _460  and  _461
REMARK  184  A    between atoms: _463  and  _465
REMARK  185  A    between atoms: _465  and  _466
REMARK  186  A    between atoms: _465  and  _468
REMARK  187  A    between atoms: _468  and  _469
REMARK  188  A    between atoms: _472  and  _474
REMARK  189  A    between atoms: _474  and  _475
REMARK  190  A    between atoms: _474  and  _477
REMARK  191  A    between atoms: _477  and  _478
REMARK  192  A    between atoms: _478  and  _479
REMARK  193  A    between atoms: _482  and  _484
REMARK  194  A    between atoms: _484  and  _485
REMARK  195  A    between atoms: _488  and  _490
REMARK  196  A    between atoms: _490  and  _491
REMARK  197  A    between atoms: _490  and  _493
REMARK  198  A    between atoms: _493  and  _494
REMARK  199  A    between atoms: _496  and  _498
REMARK  200  A    between atoms: _498  and  _499
REMARK  201  A    between atoms: _501  and  _503
REMARK  202  A    between atoms: _503  and  _504
REMARK  203  A    between atoms: _503  and  _506
REMARK  204  A    between atoms: _506  and  _507
REMARK  205  A    between atoms: _510  and  _512
REMARK  206  A    between atoms: _512  and  _513
REMARK  207  A    between atoms: _515  and  _517
REMARK  208  A    between atoms: _517  and  _518
REMARK  209  A    between atoms: _517  and  _520
REMARK  210  A    between atoms: _520  and  _521
REMARK  211  A    between atoms: _526  and  _528
REMARK  212  A    between atoms: _528  and  _529
REMARK  213  A    between atoms: _528  and  _531
REMARK  214  A    between atoms: _531  and  _532
REMARK  215  A    between atoms: _532  and  _533
REMARK  216  A    between atoms: _540  and  _541
REMARK  217  A    between atoms: _541  and  _557
REMARK  218  A    between atoms: _542  and  _544
REMARK  219  A    between atoms: _544  and  _545
REMARK  220  A    between atoms: _545  and  _546
REMARK  221  A    between atoms: _550  and  _552
REMARK  222  A    between atoms: _552  and  _553
REMARK  223  A    between atoms: _552  and  _560
REMARK  224  A    between atoms: _553  and  _554
REMARK  225  A    between atoms: _554  and  _555
REMARK  226  A    between atoms: _555  and  _556
REMARK  227  A    between atoms: _556  and  _557
REMARK  228  A    between atoms: _562  and  _564
REMARK  229  A    between atoms: _564  and  _565
REMARK  230  A    between atoms: _564  and  _567
REMARK  231  A    between atoms: _567  and  _568
REMARK  232  A    between atoms: _571  and  _573
REMARK  233  A    between atoms: _573  and  _574
REMARK  234  A    between atoms: _576  and  _578
REMARK  235  A    between atoms: _578  and  _579
REMARK  236  A    between atoms: _582  and  _584
REMARK  237  A    between atoms: _584  and  _585
REMARK  238  A    between atoms: _584  and  _587
REMARK  239  A    between atoms: _587  and  _588
REMARK  240  A    between atoms: _593  and  _594
REMARK                            x       y       z     vdW  Elec       q    Type
REMARK                         _______ _______ _______ _____ _____    ______ ____
ROOT
ATOM      1  O   HOH     1      29.644  25.962  18.165  0.00  0.00    +0.000 OA
ENDROOT
TORSDOF 0
REMARK  Name = ../refined-set-2016/3sym/3sym_pocket.pdb
REMARK  240 active torsions:
REMARK  status: ('A' for Active; 'I' for Inactive)
REMARK    1  A    between atoms: _1  and  _3
REMARK    2  A    between atoms: _3  and  _4
REMARK    3  A    between atoms: _3  and  _6
REMARK    4  A    between atoms: _6  and  _7
REMARK    5  A    between atoms: _12  and  _13
REMARK    6  A    between atoms: _15  and  _17
REMARK    7  A    between atoms: _17  and  _18
REMARK    8  A    between atoms: _17  and  _20
REMARK    9  A    between atoms: _20  and  _21
REMARK   10  A    between atoms: _21  and  _22
REMARK   11  A    between atoms: _25  and  _27
REMARK   12  A    between atoms: _27  and  _28
REMARK   13  A    between atoms: _27  and  _30
REMARK   14  A    between atoms: _30  and  _31
REMARK   15  A    between atoms: _36  and  _37
REMARK   16  A    between atoms: _39  and  _41
REMARK   17  A    between atoms: _41  and  _42
REMARK   18  A    between atoms: _44  and  _46
REMARK   19  A    between atoms: _46  and  _47
REMARK   20  A    between atoms: _46  and  _49
REMARK   21  A    between atoms: _49  and  _50
REMARK   22  A    between atoms: _55  and  _57
REMARK   23  A    between atoms: _57  and  _58
REMARK   24  A    between atoms: _60  and  _62
REMARK   25  A    between atoms: _62  and  _63
REMARK   26  A    between atoms: _65  and  _67
REMARK   27  A    between atoms: _67  and  _68
REMARK   28  A    between atoms: _67  and  _70
REMARK   29  A    between atoms: _70  and  _71
REMARK   30  A    between atoms: _74  and  _76
REMARK   31  A    between atoms: _76  and  _77
REMARK   32  A    between atoms: _79  and  _81
REMARK   33  A    between atoms: _81  and  _82
REMARK   34  A    between atoms: _81  and  _84
REMARK   35  A    between atoms: _85  and  _86
REMARK   36  A    between atoms: _86  and  _87
REMARK   37  A    between atoms: _96  and  _98
REMARK   38  A    between atoms: _98  and  _99
REMARK   39  A    between atoms: _98  and  _101
REMARK   40  A    between atoms: _101  and  _102
REMARK   41  A    between atoms: _105  and  _107
REMARK   42  A    between atoms: _107  and  _108
REMARK   43  A    between atoms: _111  and  _113
REMARK   44  A    between atoms: _113  and  _114
REMARK   45  A    between atoms: _113  and  _116
REMARK   46  A    between atoms: _116  and  _117
REMARK   47  A    between atoms: _123  and  _125
REMARK   48  A    between atoms: _125  and  _126
REMARK   49  A    between atoms: _125  and  _128
REMARK   50  A    between atoms: _128  and  _129
REMARK   51  A    between atoms: _134  and  _136
REMARK   52  A    between atoms: _136  and  _137
REMARK   53  A    between atoms: _136  and  _139
REMARK   54  A    between atoms: _139  and  _140
REMARK   55  A    between atoms: _143  and  _145
REMARK   56  A    between atoms: _145  and  _146
REMARK   57  A    between atoms: _145  and  _148
REMARK   58  A    between atoms: _148  and  _149
REMARK   59  A    between atoms: _154  and  _156
REMARK   60  A    between atoms: _156  and  _157
REMARK   61  A    between atoms: _156  and  _159
REMARK   62  A    between atoms: _159  and  _160
REMARK   63  A    between atoms: _166  and  _168
REMARK   64  A    between atoms: _168  and  _169
REMARK   65  A    between atoms: _168  and  _171
REMARK   66  A    between atoms: _171  and  _172
REMARK   67  A    between atoms: _178  and  _180
REMARK   68  A    between atoms: _180  and  _181
REMARK   69  A    between atoms: _180  and  _183
REMARK   70  A    between atoms: _183  and  _184
REMARK   71  A    between atoms: _184  and  _185
REMARK   72  A    between atoms: _185  and  _186
REMARK   73  A    between atoms: _195  and  _197
REMARK   74  A    between atoms: _197  and  _198
REMARK   75  A    between atoms: _197  and  _200
REMARK   76  A    between atoms: _200  and  _201
REMARK   77  A    between atoms: _206  and  _208
REMARK   78  A    between atoms: _208  and  _209
REMARK   79  A    between atoms: _208  and  _211
REMARK   80  A    between atoms: _211  and  _212
REMARK   81  A    between atoms: _215  and  _217
REMARK   82  A    between atoms: _217  and  _218
REMARK   83  A    between atoms: _217  and  _220
REMARK   84  A    between atoms: _220  and  _221
REMARK   85  A    between atoms: _224  and  _226
REMARK   86  A    between atoms: _226  and  _227
REMARK   87  A    between atoms: _226  and  _229
REMARK   88  A    between atoms: _229  and  _230
REMARK   89  A    between atoms: _235  and  _237
REMARK   90  A    between atoms: _237  and  _238
REMARK   91  A    between atoms: _237  and  _240
REMARK   92  A    between atoms: _240  and  _241
REMARK   93  A    between atoms: _244  and  _246
REMARK   94  A    between atoms: _246  and  _247
REMARK   95  A    between atoms: _246  and  _249
REMARK   96  A    between atoms: _249  and  _250
REMARK   97  A    between atoms: _255  and  _257
REMARK   98  A    between atoms: _257  and  _258
REMARK   99  A    between atoms: _257  and  _260
REMARK  100  A    between atoms: _260  and  _261
REMARK  101  A    between atoms: _266  and  _268
REMARK  102  A    between atoms: _268  and  _269
REMARK  103  A    between atoms: _268  and  _271
REMARK  104  A    between atoms: _271  and  _272
REMARK  105  A    between atoms: _275  and  _277
REMARK  106  A    between atoms: _277  and  _278
REMARK  107  A    between atoms: _277  and  _280
REMARK  108  A    between atoms: _283  and  _285
REMARK  109  A    between atoms: _285  and  _286
REMARK  110  A    between atoms: _285  and  _288
REMARK  111  A    between atoms: _288  and  _289
REMARK  112  A    between atoms: _292  and  _294
REMARK  113  A    between atoms: _294  and  _295
REMARK  114  A    between atoms: _298  and  _300
REMARK  115  A    between atoms: _300  and  _301
REMARK  116  A    between atoms: _300  and  _303
REMARK  117  A    between atoms: _303  and  _304
REMARK  118  A    between atoms: _307  and  _309
REMARK  119  A    between atoms: _309  and  _310
REMARK  120  A    between atoms: _309  and  _312
REMARK  121  A    between atoms: _312  and  _313
REMARK  122  A    between atoms: _318  and  _320
REMARK  123  A    between atoms: _320  and  _321
REMARK  124  A    between atoms: _323  and  _325
REMARK  125  A    between atoms: _325  and  _326
REMARK  126  A    between atoms: _325  and  _328
REMARK  127  A    between atoms: _331  and  _333
REMARK  128  A    between atoms: _333  and  _334
REMARK  129  A    between atoms: _337  and  _339
REMARK  130  A    between atoms: _339  and  _340
REMARK  131  A    between atoms: _339  and  _342
REMARK  132  A    between atoms: _342  and  _343
REMARK  133  A    between atoms: _348  and  _350
REMARK  134  A    between atoms: _350  and  _351
REMARK  135  A    between atoms: _350  and  _353
REMARK  136  A    between atoms: _353  and  _354
REMARK  137  A    between atoms: _354  and  _355
REMARK  138  A    between atoms: _355  and  _356
REMARK  139  A    between atoms: _356  and  _357
REMARK  140  A    between atoms: _361  and  _363
REMARK  141  A    between atoms: _363  and  _364
REMARK  142  A    between atoms: _363  and  _366
REMARK  143  A    between atoms: _366  and  _367
REMARK  144  A    between atoms: _370  and  _372
REMARK  145  A    between atoms: _372  and  _373
REMARK  146  A    between atoms: _372  and  _375
REMARK  147  A    between atoms: _375  and  _376
REMARK  148  A    between atoms: _381  and  _383
REMARK  149  A    between atoms: _383  and  _384
REMARK  150  A    between atoms: _386  and  _388
REMARK  151  A    between atoms: _388  and  _389
REMARK  152  A    between atoms: _388  and  _391
REMARK  153  A    between atoms: _391  and  _392
REMARK  154  A    between atoms: _392  and  _393
REMARK  155  A    between atoms: _393  and  _394
REMARK  156  A    between atoms: _394  and  _395
REMARK  157  A    between atoms: _399  and  _401
REMARK  158  A    between atoms: _401  and  _402
REMARK  159  A    between atoms: _401  and  _404
REMARK  160  A    between atoms: _404  and  _405
REMARK  161  A    between atoms: _405  and  _406
REMARK  162  A    between atoms: _406  and  _407
REMARK  163  A    between atoms: _416  and  _418
REMARK  164  A    between atoms: _418  and  _419
REMARK  165  A    between atoms: _418  and  _421
REMARK  166  A    between atoms: _421  and  _422
REMARK  167  A    between atoms: _427  and  _428
REMARK  168  A    between atoms: _430  and  _432
REMARK  169  A    between atoms: _432  and  _433
REMARK  170  A    between atoms: _432  and  _435
REMARK  171  A    between atoms: _435  and  _436
REMARK  172  A    between atoms: _436  and  _437
REMARK  173  A    between atoms: _437  and  _438
REMARK  174  A    between atoms: _438  and  _439
REMARK  175  A    between atoms: _443  and  _445
REMARK  176  A    between atoms: _445  and  _446
REMARK  177  A    between atoms: _445  and  _448
REMARK  178  A    between atoms: _448  and  _449
REMARK  179  A    between atoms: _449  and  _450
REMARK  180  A    between atoms: _455  and  _457
REMARK  181  A    between atoms: _457  and  _458
REMARK  182  A    between atoms: _457  and  _460
REMARK  183  A    between atoms: _460  and  _461
REMARK  184  A    between atoms: _463  and  _465
REMARK  185  A    between atoms: _465  and  _466
REMARK  186  A    between atoms: _465  and  _468
REMARK  187  A    between atoms: _468  and  _469
REMARK  188  A    between atoms: _472  and  _474
REMARK  189  A    between atoms: _474  and  _475
REMARK  190  A    between atoms: _474  and  _477
REMARK  191  A    between atoms: _477  and  _478
REMARK  192  A    between atoms: _478  and  _479
REMARK  193  A    between atoms: _482  and  _484
REMARK  194  A    between atoms: _484  and  _485
REMARK  195  A    between atoms: _488  and  _490
REMARK  196  A    between atoms: _490  and  _491
REMARK  197  A    between atoms: _490  and  _493
REMARK  198  A    between atoms: _493  and  _494
REMARK  199  A    between atoms: _496  and  _498
REMARK  200  A    between atoms: _498  and  _499
REMARK  201  A    between atoms: _501  and  _503
REMARK  202  A    between atoms: _503  and  _504
REMARK  203  A    between atoms: _503  and  _506
REMARK  204  A    between atoms: _506  and  _507
REMARK  205  A    between atoms: _510  and  _512
REMARK  206  A    between atoms: _512  and  _513
REMARK  207  A    between atoms: _515  and  _517
REMARK  208  A    between atoms: _517  and  _518
REMARK  209  A    between atoms: _517  and  _520
REMARK  210  A    between atoms: _520  and  _521
REMARK  211  A    between atoms: _526  and  _528
REMARK  212  A    between atoms: _528  and  _529
REMARK  213  A    between atoms: _528  and  _531
REMARK  214  A    between atoms: _531  and  _532
REMARK  215  A    between atoms: _532  and  _533
REMARK  216  A    between atoms: _540  and  _541
REMARK  217  A    between atoms: _541  and  _557
REMARK  218  A    between atoms: _542  and  _544
REMARK  219  A    between atoms: _544  and  _545
REMARK  220  A    between atoms: _545  and  _546
REMARK  221  A    between atoms: _550  and  _552
REMARK  222  A    between atoms: _552  and  _553
REMARK  223  A    between atoms: _552  and  _560
REMARK  224  A    between atoms: _553  and  _554
REMARK  225  A    between atoms: _554  and  _555
REMARK  226  A    between atoms: _555  and  _556
REMARK  227  A    between atoms: _556  and  _557
REMARK  228  A    between atoms: _562  and  _564
REMARK  229  A    between atoms: _564  and  _565
REMARK  230  A    between atoms: _564  and  _567
REMARK  231  A    between atoms: _567  and  _568
REMARK  232  A    between atoms: _571  and  _573
REMARK  233  A    between atoms: _573  and  _574
REMARK  234  A    between atoms: _576  and  _578
REMARK  235  A    between atoms: _578  and  _579
REMARK  236  A    between atoms: _582  and  _584
REMARK  237  A    between atoms: _584  and  _585
REMARK  238  A    between atoms: _584  and  _587
REMARK  239  A    between atoms: _587  and  _588
REMARK  240  A    between atoms: _593  and  _594
REMARK                            x       y       z     vdW  Elec       q    Type
REMARK                         _______ _______ _______ _____ _____    ______ ____
ROOT
ATOM      1  O   HOH     1      29.854  23.137  18.717  0.00  0.00    +0.000 OA
ENDROOT
TORSDOF 0
REMARK  Name = ../refined-set-2016/3sym/3sym_pocket.pdb
REMARK  240 active torsions:
REMARK  status: ('A' for Active; 'I' for Inactive)
REMARK    1  A    between atoms: _1  and  _3
REMARK    2  A    between atoms: _3  and  _4
REMARK    3  A    between atoms: _3  and  _6
REMARK    4  A    between atoms: _6  and  _7
REMARK    5  A    between atoms: _12  and  _13
REMARK    6  A    between atoms: _15  and  _17
REMARK    7  A    between atoms: _17  and  _18
REMARK    8  A    between atoms: _17  and  _20
REMARK    9  A    between atoms: _20  and  _21
REMARK   10  A    between atoms: _21  and  _22
REMARK   11  A    between atoms: _25  and  _27
REMARK   12  A    between atoms: _27  and  _28
REMARK   13  A    between atoms: _27  and  _30
REMARK   14  A    between atoms: _30  and  _31
REMARK   15  A    between atoms: _36  and  _37
REMARK   16  A    between atoms: _39  and  _41
REMARK   17  A    between atoms: _41  and  _42
REMARK   18  A    between atoms: _44  and  _46
REMARK   19  A    between atoms: _46  and  _47
REMARK   20  A    between atoms: _46  and  _49
REMARK   21  A    between atoms: _49  and  _50
REMARK   22  A    between atoms: _55  and  _57
REMARK   23  A    between atoms: _57  and  _58
REMARK   24  A    between atoms: _60  and  _62
REMARK   25  A    between atoms: _62  and  _63
REMARK   26  A    between atoms: _65  and  _67
REMARK   27  A    between atoms: _67  and  _68
REMARK   28  A    between atoms: _67  and  _70
REMARK   29  A    between atoms: _70  and  _71
REMARK   30  A    between atoms: _74  and  _76
REMARK   31  A    between atoms: _76  and  _77
REMARK   32  A    between atoms: _79  and  _81
REMARK   33  A    between atoms: _81  and  _82
REMARK   34  A    between atoms: _81  and  _84
REMARK   35  A    between atoms: _85  and  _86
REMARK   36  A    between atoms: _86  and  _87
REMARK   37  A    between atoms: _96  and  _98
REMARK   38  A    between atoms: _98  and  _99
REMARK   39  A    between atoms: _98  and  _101
REMARK   40  A    between atoms: _101  and  _102
REMARK   41  A    between atoms: _105  and  _107
REMARK   42  A    between atoms: _107  and  _108
REMARK   43  A    between atoms: _111  and  _113
REMARK   44  A    between atoms: _113  and  _114
REMARK   45  A    between atoms: _113  and  _116
REMARK   46  A    between atoms: _116  and  _117
REMARK   47  A    between atoms: _123  and  _125
REMARK   48  A    between atoms: _125  and  _126
REMARK   49  A    between atoms: _125  and  _128
REMARK   50  A    between atoms: _128  and  _129
REMARK   51  A    between atoms: _134  and  _136
REMARK   52  A    between atoms: _136  and  _137
REMARK   53  A    between atoms: _136  and  _139
REMARK   54  A    between atoms: _139  and  _140
REMARK   55  A    between atoms: _143  and  _145
REMARK   56  A    between atoms: _145  and  _146
REMARK   57  A    between atoms: _145  and  _148
REMARK   58  A    between atoms: _148  and  _149
REMARK   59  A    between atoms: _154  and  _156
REMARK   60  A    between atoms: _156  and  _157
REMARK   61  A    between atoms: _156  and  _159
REMARK   62  A    between atoms: _159  and  _160
REMARK   63  A    between atoms: _166  and  _168
REMARK   64  A    between atoms: _168  and  _169
REMARK   65  A    between atoms: _168  and  _171
REMARK   66  A    between atoms: _171  and  _172
REMARK   67  A    between atoms: _178  and  _180
REMARK   68  A    between atoms: _180  and  _181
REMARK   69  A    between atoms: _180  and  _183
REMARK   70  A    between atoms: _183  and  _184
REMARK   71  A    between atoms: _184  and  _185
REMARK   72  A    between atoms: _185  and  _186
REMARK   73  A    between atoms: _195  and  _197
REMARK   74  A    between atoms: _197  and  _198
REMARK   75  A    between atoms: _197  and  _200
REMARK   76  A    between atoms: _200  and  _201
REMARK   77  A    between atoms: _206  and  _208
REMARK   78  A    between atoms: _208  and  _209
REMARK   79  A    between atoms: _208  and  _211
REMARK   80  A    between atoms: _211  and  _212
REMARK   81  A    between atoms: _215  and  _217
REMARK   82  A    between atoms: _217  and  _218
REMARK   83  A    between atoms: _217  and  _220
REMARK   84  A    between atoms: _220  and  _221
REMARK   85  A    between atoms: _224  and  _226
REMARK   86  A    between atoms: _226  and  _227
REMARK   87  A    between atoms: _226  and  _229
REMARK   88  A    between atoms: _229  and  _230
REMARK   89  A    between atoms: _235  and  _237
REMARK   90  A    between atoms: _237  and  _238
REMARK   91  A    between atoms: _237  and  _240
REMARK   92  A    between atoms: _240  and  _241
REMARK   93  A    between atoms: _244  and  _246
REMARK   94  A    between atoms: _246  and  _247
REMARK   95  A    between atoms: _246  and  _249
REMARK   96  A    between atoms: _249  and  _250
REMARK   97  A    between atoms: _255  and  _257
REMARK   98  A    between atoms: _257  and  _258
REMARK   99  A    between atoms: _257  and  _260
REMARK  100  A    between atoms: _260  and  _261
REMARK  101  A    between atoms: _266  and  _268
REMARK  102  A    between atoms: _268  and  _269
REMARK  103  A    between atoms: _268  and  _271
REMARK  104  A    between atoms: _271  and  _272
REMARK  105  A    between atoms: _275  and  _277
REMARK  106  A    between atoms: _277  and  _278
REMARK  107  A    between atoms: _277  and  _280
REMARK  108  A    between atoms: _283  and  _285
REMARK  109  A    between atoms: _285  and  _286
REMARK  110  A    between atoms: _285  and  _288
REMARK  111  A    between atoms: _288  and  _289
REMARK  112  A    between atoms: _292  and  _294
REMARK  113  A    between atoms: _294  and  _295
REMARK  114  A    between atoms: _298  and  _300
REMARK  115  A    between atoms: _300  and  _301
REMARK  116  A    between atoms: _300  and  _303
REMARK  117  A    between atoms: _303  and  _304
REMARK  118  A    between atoms: _307  and  _309
REMARK  119  A    between atoms: _309  and  _310
REMARK  120  A    between atoms: _309  and  _312
REMARK  121  A    between atoms: _312  and  _313
REMARK  122  A    between atoms: _318  and  _320
REMARK  123  A    between atoms: _320  and  _321
REMARK  124  A    between atoms: _323  and  _325
REMARK  125  A    between atoms: _325  and  _326
REMARK  126  A    between atoms: _325  and  _328
REMARK  127  A    between atoms: _331  and  _333
REMARK  128  A    between atoms: _333  and  _334
REMARK  129  A    between atoms: _337  and  _339
REMARK  130  A    between atoms: _339  and  _340
REMARK  131  A    between atoms: _339  and  _342
REMARK  132  A    between atoms: _342  and  _343
REMARK  133  A    between atoms: _348  and  _350
REMARK  134  A    between atoms: _350  and  _351
REMARK  135  A    between atoms: _350  and  _353
REMARK  136  A    between atoms: _353  and  _354
REMARK  137  A    between atoms: _354  and  _355
REMARK  138  A    between atoms: _355  and  _356
REMARK  139  A    between atoms: _356  and  _357
REMARK  140  A    between atoms: _361  and  _363
REMARK  141  A    between atoms: _363  and  _364
REMARK  142  A    between atoms: _363  and  _366
REMARK  143  A    between atoms: _366  and  _367
REMARK  144  A    between atoms: _370  and  _372
REMARK  145  A    between atoms: _372  and  _373
REMARK  146  A    between atoms: _372  and  _375
REMARK  147  A    between atoms: _375  and  _376
REMARK  148  A    between atoms: _381  and  _383
REMARK  149  A    between atoms: _383  and  _384
REMARK  150  A    between atoms: _386  and  _388
REMARK  151  A    between atoms: _388  and  _389
REMARK  152  A    between atoms: _388  and  _391
REMARK  153  A    between atoms: _391  and  _392
REMARK  154  A    between atoms: _392  and  _393
REMARK  155  A    between atoms: _393  and  _394
REMARK  156  A    between atoms: _394  and  _395
REMARK  157  A    between atoms: _399  and  _401
REMARK  158  A    between atoms: _401  and  _402
REMARK  159  A    between atoms: _401  and  _404
REMARK  160  A    between atoms: _404  and  _405
REMARK  161  A    between atoms: _405  and  _406
REMARK  162  A    between atoms: _406  and  _407
REMARK  163  A    between atoms: _416  and  _418
REMARK  164  A    between atoms: _418  and  _419
REMARK  165  A    between atoms: _418  and  _421
REMARK  166  A    between atoms: _421  and  _422
REMARK  167  A    between atoms: _427  and  _428
REMARK  168  A    between atoms: _430  and  _432
REMARK  169  A    between atoms: _432  and  _433
REMARK  170  A    between atoms: _432  and  _435
REMARK  171  A    between atoms: _435  and  _436
REMARK  172  A    between atoms: _436  and  _437
REMARK  173  A    between atoms: _437  and  _438
REMARK  174  A    between atoms: _438  and  _439
REMARK  175  A    between atoms: _443  and  _445
REMARK  176  A    between atoms: _445  and  _446
REMARK  177  A    between atoms: _445  and  _448
REMARK  178  A    between atoms: _448  and  _449
REMARK  179  A    between atoms: _449  and  _450
REMARK  180  A    between atoms: _455  and  _457
REMARK  181  A    between atoms: _457  and  _458
REMARK  182  A    between atoms: _457  and  _460
REMARK  183  A    between atoms: _460  and  _461
REMARK  184  A    between atoms: _463  and  _465
REMARK  185  A    between atoms: _465  and  _466
REMARK  186  A    between atoms: _465  and  _468
REMARK  187  A    between atoms: _468  and  _469
REMARK  188  A    between atoms: _472  and  _474
REMARK  189  A    between atoms: _474  and  _475
REMARK  190  A    between atoms: _474  and  _477
REMARK  191  A    between atoms: _477  and  _478
REMARK  192  A    between atoms: _478  and  _479
REMARK  193  A    between atoms: _482  and  _484
REMARK  194  A    between atoms: _484  and  _485
REMARK  195  A    between atoms: _488  and  _490
REMARK  196  A    between atoms: _490  and  _491
REMARK  197  A    between atoms: _490  and  _493
REMARK  198  A    between atoms: _493  and  _494
REMARK  199  A    between atoms: _496  and  _498
REMARK  200  A    between atoms: _498  and  _499
REMARK  201  A    between atoms: _501  and  _503
REMARK  202  A    between atoms: _503  and  _504
REMARK  203  A    between atoms: _503  and  _506
REMARK  204  A    between atoms: _506  and  _507
REMARK  205  A    between atoms: _510  and  _512
REMARK  206  A    between atoms: _512  and  _513
REMARK  207  A    between atoms: _515  and  _517
REMARK  208  A    between atoms: _517  and  _518
REMARK  209  A    between atoms: _517  and  _520
REMARK  210  A    between atoms: _520  and  _521
REMARK  211  A    between atoms: _526  and  _528
REMARK  212  A    between atoms: _528  and  _529
REMARK  213  A    between atoms: _528  and  _531
REMARK  214  A    between atoms: _531  and  _532
REMARK  215  A    between atoms: _532  and  _533
REMARK  216  A    between atoms: _540  and  _541
REMARK  217  A    between atoms: _541  and  _557
REMARK  218  A    between atoms: _542  and  _544
REMARK  219  A    between atoms: _544  and  _545
REMARK  220  A    between atoms: _545  and  _546
REMARK  221  A    between atoms: _550  and  _552
REMARK  222  A    between atoms: _552  and  _553
REMARK  223  A    between atoms: _552  and  _560
REMARK  224  A    between atoms: _553  and  _554
REMARK  225  A    between atoms: _554  and  _555
REMARK  226  A    between atoms: _555  and  _556
REMARK  227  A    between atoms: _556  and  _557
REMARK  228  A    between atoms: _562  and  _564
REMARK  229  A    between atoms: _564  and  _565
REMARK  230  A    between atoms: _564  and  _567
REMARK  231  A    between atoms: _567  and  _568
REMARK  232  A    between atoms: _571  and  _573
REMARK  233  A    between atoms: _573  and  _574
REMARK  234  A    between atoms: _576  and  _578
REMARK  235  A    between atoms: _578  and  _579
REMARK  236  A    between atoms: _582  and  _584
REMARK  237  A    between atoms: _584  and  _585
REMARK  238  A    between atoms: _584  and  _587
REMARK  239  A    between atoms: _587  and  _588
REMARK  240  A    between atoms: _593  and  _594
REMARK                            x       y       z     vdW  Elec       q    Type
REMARK                         _______ _______ _______ _____ _____    ______ ____
ROOT
ATOM      1  O   HOH     1      26.944  18.984  28.975  0.00  0.00    +0.000 OA
ENDROOT
TORSDOF 0
REMARK  Name = ../refined-set-2016/3sym/3sym_pocket.pdb
REMARK  240 active torsions:
REMARK  status: ('A' for Active; 'I' for Inactive)
REMARK    1  A    between atoms: _1  and  _3
REMARK    2  A    between atoms: _3  and  _4
REMARK    3  A    between atoms: _3  and  _6
REMARK    4  A    between atoms: _6  and  _7
REMARK    5  A    between atoms: _12  and  _13
REMARK    6  A    between atoms: _15  and  _17
REMARK    7  A    between atoms: _17  and  _18
REMARK    8  A    between atoms: _17  and  _20
REMARK    9  A    between atoms: _20  and  _21
REMARK   10  A    between atoms: _21  and  _22
REMARK   11  A    between atoms: _25  and  _27
REMARK   12  A    between atoms: _27  and  _28
REMARK   13  A    between atoms: _27  and  _30
REMARK   14  A    between atoms: _30  and  _31
REMARK   15  A    between atoms: _36  and  _37
REMARK   16  A    between atoms: _39  and  _41
REMARK   17  A    between atoms: _41  and  _42
REMARK   18  A    between atoms: _44  and  _46
REMARK   19  A    between atoms: _46  and  _47
REMARK   20  A    between atoms: _46  and  _49
REMARK   21  A    between atoms: _49  and  _50
REMARK   22  A    between atoms: _55  and  _57
REMARK   23  A    between atoms: _57  and  _58
REMARK   24  A    between atoms: _60  and  _62
REMARK   25  A    between atoms: _62  and  _63
REMARK   26  A    between atoms: _65  and  _67
REMARK   27  A    between atoms: _67  and  _68
REMARK   28  A    between atoms: _67  and  _70
REMARK   29  A    between atoms: _70  and  _71
REMARK   30  A    between atoms: _74  and  _76
REMARK   31  A    between atoms: _76  and  _77
REMARK   32  A    between atoms: _79  and  _81
REMARK   33  A    between atoms: _81  and  _82
REMARK   34  A    between atoms: _81  and  _84
REMARK   35  A    between atoms: _85  and  _86
REMARK   36  A    between atoms: _86  and  _87
REMARK   37  A    between atoms: _96  and  _98
REMARK   38  A    between atoms: _98  and  _99
REMARK   39  A    between atoms: _98  and  _101
REMARK   40  A    between atoms: _101  and  _102
REMARK   41  A    between atoms: _105  and  _107
REMARK   42  A    between atoms: _107  and  _108
REMARK   43  A    between atoms: _111  and  _113
REMARK   44  A    between atoms: _113  and  _114
REMARK   45  A    between atoms: _113  and  _116
REMARK   46  A    between atoms: _116  and  _117
REMARK   47  A    between atoms: _123  and  _125
REMARK   48  A    between atoms: _125  and  _126
REMARK   49  A    between atoms: _125  and  _128
REMARK   50  A    between atoms: _128  and  _129
REMARK   51  A    between atoms: _134  and  _136
REMARK   52  A    between atoms: _136  and  _137
REMARK   53  A    between atoms: _136  and  _139
REMARK   54  A    between atoms: _139  and  _140
REMARK   55  A    between atoms: _143  and  _145
REMARK   56  A    between atoms: _145  and  _146
REMARK   57  A    between atoms: _145  and  _148
REMARK   58  A    between atoms: _148  and  _149
REMARK   59  A    between atoms: _154  and  _156
REMARK   60  A    between atoms: _156  and  _157
REMARK   61  A    between atoms: _156  and  _159
REMARK   62  A    between atoms: _159  and  _160
REMARK   63  A    between atoms: _166  and  _168
REMARK   64  A    between atoms: _168  and  _169
REMARK   65  A    between atoms: _168  and  _171
REMARK   66  A    between atoms: _171  and  _172
REMARK   67  A    between atoms: _178  and  _180
REMARK   68  A    between atoms: _180  and  _181
REMARK   69  A    between atoms: _180  and  _183
REMARK   70  A    between atoms: _183  and  _184
REMARK   71  A    between atoms: _184  and  _185
REMARK   72  A    between atoms: _185  and  _186
REMARK   73  A    between atoms: _195  and  _197
REMARK   74  A    between atoms: _197  and  _198
REMARK   75  A    between atoms: _197  and  _200
REMARK   76  A    between atoms: _200  and  _201
REMARK   77  A    between atoms: _206  and  _208
REMARK   78  A    between atoms: _208  and  _209
REMARK   79  A    between atoms: _208  and  _211
REMARK   80  A    between atoms: _211  and  _212
REMARK   81  A    between atoms: _215  and  _217
REMARK   82  A    between atoms: _217  and  _218
REMARK   83  A    between atoms: _217  and  _220
REMARK   84  A    between atoms: _220  and  _221
REMARK   85  A    between atoms: _224  and  _226
REMARK   86  A    between atoms: _226  and  _227
REMARK   87  A    between atoms: _226  and  _229
REMARK   88  A    between atoms: _229  and  _230
REMARK   89  A    between atoms: _235  and  _237
REMARK   90  A    between atoms: _237  and  _238
REMARK   91  A    between atoms: _237  and  _240
REMARK   92  A    between atoms: _240  and  _241
REMARK   93  A    between atoms: _244  and  _246
REMARK   94  A    between atoms: _246  and  _247
REMARK   95  A    between atoms: _246  and  _249
REMARK   96  A    between atoms: _249  and  _250
REMARK   97  A    between atoms: _255  and  _257
REMARK   98  A    between atoms: _257  and  _258
REMARK   99  A    between atoms: _257  and  _260
REMARK  100  A    between atoms: _260  and  _261
REMARK  101  A    between atoms: _266  and  _268
REMARK  102  A    between atoms: _268  and  _269
REMARK  103  A    between atoms: _268  and  _271
REMARK  104  A    between atoms: _271  and  _272
REMARK  105  A    between atoms: _275  and  _277
REMARK  106  A    between atoms: _277  and  _278
REMARK  107  A    between atoms: _277  and  _280
REMARK  108  A    between atoms: _283  and  _285
REMARK  109  A    between atoms: _285  and  _286
REMARK  110  A    between atoms: _285  and  _288
REMARK  111  A    between atoms: _288  and  _289
REMARK  112  A    between atoms: _292  and  _294
REMARK  113  A    between atoms: _294  and  _295
REMARK  114  A    between atoms: _298  and  _300
REMARK  115  A    between atoms: _300  and  _301
REMARK  116  A    between atoms: _300  and  _303
REMARK  117  A    between atoms: _303  and  _304
REMARK  118  A    between atoms: _307  and  _309
REMARK  119  A    between atoms: _309  and  _310
REMARK  120  A    between atoms: _309  and  _312
REMARK  121  A    between atoms: _312  and  _313
REMARK  122  A    between atoms: _318  and  _320
REMARK  123  A    between atoms: _320  and  _321
REMARK  124  A    between atoms: _323  and  _325
REMARK  125  A    between atoms: _325  and  _326
REMARK  126  A    between atoms: _325  and  _328
REMARK  127  A    between atoms: _331  and  _333
REMARK  128  A    between atoms: _333  and  _334
REMARK  129  A    between atoms: _337  and  _339
REMARK  130  A    between atoms: _339  and  _340
REMARK  131  A    between atoms: _339  and  _342
REMARK  132  A    between atoms: _342  and  _343
REMARK  133  A    between atoms: _348  and  _350
REMARK  134  A    between atoms: _350  and  _351
REMARK  135  A    between atoms: _350  and  _353
REMARK  136  A    between atoms: _353  and  _354
REMARK  137  A    between atoms: _354  and  _355
REMARK  138  A    between atoms: _355  and  _356
REMARK  139  A    between atoms: _356  and  _357
REMARK  140  A    between atoms: _361  and  _363
REMARK  141  A    between atoms: _363  and  _364
REMARK  142  A    between atoms: _363  and  _366
REMARK  143  A    between atoms: _366  and  _367
REMARK  144  A    between atoms: _370  and  _372
REMARK  145  A    between atoms: _372  and  _373
REMARK  146  A    between atoms: _372  and  _375
REMARK  147  A    between atoms: _375  and  _376
REMARK  148  A    between atoms: _381  and  _383
REMARK  149  A    between atoms: _383  and  _384
REMARK  150  A    between atoms: _386  and  _388
REMARK  151  A    between atoms: _388  and  _389
REMARK  152  A    between atoms: _388  and  _391
REMARK  153  A    between atoms: _391  and  _392
REMARK  154  A    between atoms: _392  and  _393
REMARK  155  A    between atoms: _393  and  _394
REMARK  156  A    between atoms: _394  and  _395
REMARK  157  A    between atoms: _399  and  _401
REMARK  158  A    between atoms: _401  and  _402
REMARK  159  A    between atoms: _401  and  _404
REMARK  160  A    between atoms: _404  and  _405
REMARK  161  A    between atoms: _405  and  _406
REMARK  162  A    between atoms: _406  and  _407
REMARK  163  A    between atoms: _416  and  _418
REMARK  164  A    between atoms: _418  and  _419
REMARK  165  A    between atoms: _418  and  _421
REMARK  166  A    between atoms: _421  and  _422
REMARK  167  A    between atoms: _427  and  _428
REMARK  168  A    between atoms: _430  and  _432
REMARK  169  A    between atoms: _432  and  _433
REMARK  170  A    between atoms: _432  and  _435
REMARK  171  A    between atoms: _435  and  _436
REMARK  172  A    between atoms: _436  and  _437
REMARK  173  A    between atoms: _437  and  _438
REMARK  174  A    between atoms: _438  and  _439
REMARK  175  A    between atoms: _443  and  _445
REMARK  176  A    between atoms: _445  and  _446
REMARK  177  A    between atoms: _445  and  _448
REMARK  178  A    between atoms: _448  and  _449
REMARK  179  A    between atoms: _449  and  _450
REMARK  180  A    between atoms: _455  and  _457
REMARK  181  A    between atoms: _457  and  _458
REMARK  182  A    between atoms: _457  and  _460
REMARK  183  A    between atoms: _460  and  _461
REMARK  184  A    between atoms: _463  and  _465
REMARK  185  A    between atoms: _465  and  _466
REMARK  186  A    between atoms: _465  and  _468
REMARK  187  A    between atoms: _468  and  _469
REMARK  188  A    between atoms: _472  and  _474
REMARK  189  A    between atoms: _474  and  _475
REMARK  190  A    between atoms: _474  and  _477
REMARK  191  A    between atoms: _477  and  _478
REMARK  192  A    between atoms: _478  and  _479
REMARK  193  A    between atoms: _482  and  _484
REMARK  194  A    between atoms: _484  and  _485
REMARK  195  A    between atoms: _488  and  _490
REMARK  196  A    between atoms: _490  and  _491
REMARK  197  A    between atoms: _490  and  _493
REMARK  198  A    between atoms: _493  and  _494
REMARK  199  A    between atoms: _496  and  _498
REMARK  200  A    between atoms: _498  and  _499
REMARK  201  A    between atoms: _501  and  _503
REMARK  202  A    between atoms: _503  and  _504
REMARK  203  A    between atoms: _503  and  _506
REMARK  204  A    between atoms: _506  and  _507
REMARK  205  A    between atoms: _510  and  _512
REMARK  206  A    between atoms: _512  and  _513
REMARK  207  A    between atoms: _515  and  _517
REMARK  208  A    between atoms: _517  and  _518
REMARK  209  A    between atoms: _517  and  _520
REMARK  210  A    between atoms: _520  and  _521
REMARK  211  A    between atoms: _526  and  _528
REMARK  212  A    between atoms: _528  and  _529
REMARK  213  A    between atoms: _528  and  _531
REMARK  214  A    between atoms: _531  and  _532
REMARK  215  A    between atoms: _532  and  _533
REMARK  216  A    between atoms: _540  and  _541
REMARK  217  A    between atoms: _541  and  _557
REMARK  218  A    between atoms: _542  and  _544
REMARK  219  A    between atoms: _544  and  _545
REMARK  220  A    between atoms: _545  and  _546
REMARK  221  A    between atoms: _550  and  _552
REMARK  222  A    between atoms: _552  and  _553
REMARK  223  A    between atoms: _552  and  _560
REMARK  224  A    between atoms: _553  and  _554
REMARK  225  A    between atoms: _554  and  _555
REMARK  226  A    between atoms: _555  and  _556
REMARK  227  A    between atoms: _556  and  _557
REMARK  228  A    between atoms: _562  and  _564
REMARK  229  A    between atoms: _564  and  _565
REMARK  230  A    between atoms: _564  and  _567
REMARK  231  A    between atoms: _567  and  _568
REMARK  232  A    between atoms: _571  and  _573
REMARK  233  A    between atoms: _573  and  _574
REMARK  234  A    between atoms: _576  and  _578
REMARK  235  A    between atoms: _578  and  _579
REMARK  236  A    between atoms: _582  and  _584
REMARK  237  A    between atoms: _584  and  _585
REMARK  238  A    between atoms: _584  and  _587
REMARK  239  A    between atoms: _587  and  _588
REMARK  240  A    between atoms: _593  and  _594
REMARK                            x       y       z     vdW  Elec       q    Type
REMARK                         _______ _______ _______ _____ _____    ______ ____
ROOT
ATOM      1  O   HOH     1      29.043  21.150  26.491  0.00  0.00    +0.000 OA
ENDROOT
TORSDOF 0
REMARK  Name = ../refined-set-2016/3sym/3sym_pocket.pdb
REMARK  240 active torsions:
REMARK  status: ('A' for Active; 'I' for Inactive)
REMARK    1  A    between atoms: _1  and  _3
REMARK    2  A    between atoms: _3  and  _4
REMARK    3  A    between atoms: _3  and  _6
REMARK    4  A    between atoms: _6  and  _7
REMARK    5  A    between atoms: _12  and  _13
REMARK    6  A    between atoms: _15  and  _17
REMARK    7  A    between atoms: _17  and  _18
REMARK    8  A    between atoms: _17  and  _20
REMARK    9  A    between atoms: _20  and  _21
REMARK   10  A    between atoms: _21  and  _22
REMARK   11  A    between atoms: _25  and  _27
REMARK   12  A    between atoms: _27  and  _28
REMARK   13  A    between atoms: _27  and  _30
REMARK   14  A    between atoms: _30  and  _31
REMARK   15  A    between atoms: _36  and  _37
REMARK   16  A    between atoms: _39  and  _41
REMARK   17  A    between atoms: _41  and  _42
REMARK   18  A    between atoms: _44  and  _46
REMARK   19  A    between atoms: _46  and  _47
REMARK   20  A    between atoms: _46  and  _49
REMARK   21  A    between atoms: _49  and  _50
REMARK   22  A    between atoms: _55  and  _57
REMARK   23  A    between atoms: _57  and  _58
REMARK   24  A    between atoms: _60  and  _62
REMARK   25  A    between atoms: _62  and  _63
REMARK   26  A    between atoms: _65  and  _67
REMARK   27  A    between atoms: _67  and  _68
REMARK   28  A    between atoms: _67  and  _70
REMARK   29  A    between atoms: _70  and  _71
REMARK   30  A    between atoms: _74  and  _76
REMARK   31  A    between atoms: _76  and  _77
REMARK   32  A    between atoms: _79  and  _81
REMARK   33  A    between atoms: _81  and  _82
REMARK   34  A    between atoms: _81  and  _84
REMARK   35  A    between atoms: _85  and  _86
REMARK   36  A    between atoms: _86  and  _87
REMARK   37  A    between atoms: _96  and  _98
REMARK   38  A    between atoms: _98  and  _99
REMARK   39  A    between atoms: _98  and  _101
REMARK   40  A    between atoms: _101  and  _102
REMARK   41  A    between atoms: _105  and  _107
REMARK   42  A    between atoms: _107  and  _108
REMARK   43  A    between atoms: _111  and  _113
REMARK   44  A    between atoms: _113  and  _114
REMARK   45  A    between atoms: _113  and  _116
REMARK   46  A    between atoms: _116  and  _117
REMARK   47  A    between atoms: _123  and  _125
REMARK   48  A    between atoms: _125  and  _126
REMARK   49  A    between atoms: _125  and  _128
REMARK   50  A    between atoms: _128  and  _129
REMARK   51  A    between atoms: _134  and  _136
REMARK   52  A    between atoms: _136  and  _137
REMARK   53  A    between atoms: _136  and  _139
REMARK   54  A    between atoms: _139  and  _140
REMARK   55  A    between atoms: _143  and  _145
REMARK   56  A    between atoms: _145  and  _146
REMARK   57  A    between atoms: _145  and  _148
REMARK   58  A    between atoms: _148  and  _149
REMARK   59  A    between atoms: _154  and  _156
REMARK   60  A    between atoms: _156  and  _157
REMARK   61  A    between atoms: _156  and  _159
REMARK   62  A    between atoms: _159  and  _160
REMARK   63  A    between atoms: _166  and  _168
REMARK   64  A    between atoms: _168  and  _169
REMARK   65  A    between atoms: _168  and  _171
REMARK   66  A    between atoms: _171  and  _172
REMARK   67  A    between atoms: _178  and  _180
REMARK   68  A    between atoms: _180  and  _181
REMARK   69  A    between atoms: _180  and  _183
REMARK   70  A    between atoms: _183  and  _184
REMARK   71  A    between atoms: _184  and  _185
REMARK   72  A    between atoms: _185  and  _186
REMARK   73  A    between atoms: _195  and  _197
REMARK   74  A    between atoms: _197  and  _198
REMARK   75  A    between atoms: _197  and  _200
REMARK   76  A    between atoms: _200  and  _201
REMARK   77  A    between atoms: _206  and  _208
REMARK   78  A    between atoms: _208  and  _209
REMARK   79  A    between atoms: _208  and  _211
REMARK   80  A    between atoms: _211  and  _212
REMARK   81  A    between atoms: _215  and  _217
REMARK   82  A    between atoms: _217  and  _218
REMARK   83  A    between atoms: _217  and  _220
REMARK   84  A    between atoms: _220  and  _221
REMARK   85  A    between atoms: _224  and  _226
REMARK   86  A    between atoms: _226  and  _227
REMARK   87  A    between atoms: _226  and  _229
REMARK   88  A    between atoms: _229  and  _230
REMARK   89  A    between atoms: _235  and  _237
REMARK   90  A    between atoms: _237  and  _238
REMARK   91  A    between atoms: _237  and  _240
REMARK   92  A    between atoms: _240  and  _241
REMARK   93  A    between atoms: _244  and  _246
REMARK   94  A    between atoms: _246  and  _247
REMARK   95  A    between atoms: _246  and  _249
REMARK   96  A    between atoms: _249  and  _250
REMARK   97  A    between atoms: _255  and  _257
REMARK   98  A    between atoms: _257  and  _258
REMARK   99  A    between atoms: _257  and  _260
REMARK  100  A    between atoms: _260  and  _261
REMARK  101  A    between atoms: _266  and  _268
REMARK  102  A    between atoms: _268  and  _269
REMARK  103  A    between atoms: _268  and  _271
REMARK  104  A    between atoms: _271  and  _272
REMARK  105  A    between atoms: _275  and  _277
REMARK  106  A    between atoms: _277  and  _278
REMARK  107  A    between atoms: _277  and  _280
REMARK  108  A    between atoms: _283  and  _285
REMARK  109  A    between atoms: _285  and  _286
REMARK  110  A    between atoms: _285  and  _288
REMARK  111  A    between atoms: _288  and  _289
REMARK  112  A    between atoms: _292  and  _294
REMARK  113  A    between atoms: _294  and  _295
REMARK  114  A    between atoms: _298  and  _300
REMARK  115  A    between atoms: _300  and  _301
REMARK  116  A    between atoms: _300  and  _303
REMARK  117  A    between atoms: _303  and  _304
REMARK  118  A    between atoms: _307  and  _309
REMARK  119  A    between atoms: _309  and  _310
REMARK  120  A    between atoms: _309  and  _312
REMARK  121  A    between atoms: _312  and  _313
REMARK  122  A    between atoms: _318  and  _320
REMARK  123  A    between atoms: _320  and  _321
REMARK  124  A    between atoms: _323  and  _325
REMARK  125  A    between atoms: _325  and  _326
REMARK  126  A    between atoms: _325  and  _328
REMARK  127  A    between atoms: _331  and  _333
REMARK  128  A    between atoms: _333  and  _334
REMARK  129  A    between atoms: _337  and  _339
REMARK  130  A    between atoms: _339  and  _340
REMARK  131  A    between atoms: _339  and  _342
REMARK  132  A    between atoms: _342  and  _343
REMARK  133  A    between atoms: _348  and  _350
REMARK  134  A    between atoms: _350  and  _351
REMARK  135  A    between atoms: _350  and  _353
REMARK  136  A    between atoms: _353  and  _354
REMARK  137  A    between atoms: _354  and  _355
REMARK  138  A    between atoms: _355  and  _356
REMARK  139  A    between atoms: _356  and  _357
REMARK  140  A    between atoms: _361  and  _363
REMARK  141  A    between atoms: _363  and  _364
REMARK  142  A    between atoms: _363  and  _366
REMARK  143  A    between atoms: _366  and  _367
REMARK  144  A    between atoms: _370  and  _372
REMARK  145  A    between atoms: _372  and  _373
REMARK  146  A    between atoms: _372  and  _375
REMARK  147  A    between atoms: _375  and  _376
REMARK  148  A    between atoms: _381  and  _383
REMARK  149  A    between atoms: _383  and  _384
REMARK  150  A    between atoms: _386  and  _388
REMARK  151  A    between atoms: _388  and  _389
REMARK  152  A    between atoms: _388  and  _391
REMARK  153  A    between atoms: _391  and  _392
REMARK  154  A    between atoms: _392  and  _393
REMARK  155  A    between atoms: _393  and  _394
REMARK  156  A    between atoms: _394  and  _395
REMARK  157  A    between atoms: _399  and  _401
REMARK  158  A    between atoms: _401  and  _402
REMARK  159  A    between atoms: _401  and  _404
REMARK  160  A    between atoms: _404  and  _405
REMARK  161  A    between atoms: _405  and  _406
REMARK  162  A    between atoms: _406  and  _407
REMARK  163  A    between atoms: _416  and  _418
REMARK  164  A    between atoms: _418  and  _419
REMARK  165  A    between atoms: _418  and  _421
REMARK  166  A    between atoms: _421  and  _422
REMARK  167  A    between atoms: _427  and  _428
REMARK  168  A    between atoms: _430  and  _432
REMARK  169  A    between atoms: _432  and  _433
REMARK  170  A    between atoms: _432  and  _435
REMARK  171  A    between atoms: _435  and  _436
REMARK  172  A    between atoms: _436  and  _437
REMARK  173  A    between atoms: _437  and  _438
REMARK  174  A    between atoms: _438  and  _439
REMARK  175  A    between atoms: _443  and  _445
REMARK  176  A    between atoms: _445  and  _446
REMARK  177  A    between atoms: _445  and  _448
REMARK  178  A    between atoms: _448  and  _449
REMARK  179  A    between atoms: _449  and  _450
REMARK  180  A    between atoms: _455  and  _457
REMARK  181  A    between atoms: _457  and  _458
REMARK  182  A    between atoms: _457  and  _460
REMARK  183  A    between atoms: _460  and  _461
REMARK  184  A    between atoms: _463  and  _465
REMARK  185  A    between atoms: _465  and  _466
REMARK  186  A    between atoms: _465  and  _468
REMARK  187  A    between atoms: _468  and  _469
REMARK  188  A    between atoms: _472  and  _474
REMARK  189  A    between atoms: _474  and  _475
REMARK  190  A    between atoms: _474  and  _477
REMARK  191  A    between atoms: _477  and  _478
REMARK  192  A    between atoms: _478  and  _479
REMARK  193  A    between atoms: _482  and  _484
REMARK  194  A    between atoms: _484  and  _485
REMARK  195  A    between atoms: _488  and  _490
REMARK  196  A    between atoms: _490  and  _491
REMARK  197  A    between atoms: _490  and  _493
REMARK  198  A    between atoms: _493  and  _494
REMARK  199  A    between atoms: _496  and  _498
REMARK  200  A    between atoms: _498  and  _499
REMARK  201  A    between atoms: _501  and  _503
REMARK  202  A    between atoms: _503  and  _504
REMARK  203  A    between atoms: _503  and  _506
REMARK  204  A    between atoms: _506  and  _507
REMARK  205  A    between atoms: _510  and  _512
REMARK  206  A    between atoms: _512  and  _513
REMARK  207  A    between atoms: _515  and  _517
REMARK  208  A    between atoms: _517  and  _518
REMARK  209  A    between atoms: _517  and  _520
REMARK  210  A    between atoms: _520  and  _521
REMARK  211  A    between atoms: _526  and  _528
REMARK  212  A    between atoms: _528  and  _529
REMARK  213  A    between atoms: _528  and  _531
REMARK  214  A    between atoms: _531  and  _532
REMARK  215  A    between atoms: _532  and  _533
REMARK  216  A    between atoms: _540  and  _541
REMARK  217  A    between atoms: _541  and  _557
REMARK  218  A    between atoms: _542  and  _544
REMARK  219  A    between atoms: _544  and  _545
REMARK  220  A    between atoms: _545  and  _546
REMARK  221  A    between atoms: _550  and  _552
REMARK  222  A    between atoms: _552  and  _553
REMARK  223  A    between atoms: _552  and  _560
REMARK  224  A    between atoms: _553  and  _554
REMARK  225  A    between atoms: _554  and  _555
REMARK  226  A    between atoms: _555  and  _556
REMARK  227  A    between atoms: _556  and  _557
REMARK  228  A    between atoms: _562  and  _564
REMARK  229  A    between atoms: _564  and  _565
REMARK  230  A    between atoms: _564  and  _567
REMARK  231  A    between atoms: _567  and  _568
REMARK  232  A    between atoms: _571  and  _573
REMARK  233  A    between atoms: _573  and  _574
REMARK  234  A    between atoms: _576  and  _578
REMARK  235  A    between atoms: _578  and  _579
REMARK  236  A    between atoms: _582  and  _584
REMARK  237  A    between atoms: _584  and  _585
REMARK  238  A    between atoms: _584  and  _587
REMARK  239  A    between atoms: _587  and  _588
REMARK  240  A    between atoms: _593  and  _594
REMARK                            x       y       z     vdW  Elec       q    Type
REMARK                         _______ _______ _______ _____ _____    ______ ____
ROOT
ATOM      1  O   HOH     1      42.851  20.768  30.358  0.00  0.00    +0.000 OA
ENDROOT
TORSDOF 0
REMARK  Name = ../refined-set-2016/3sym/3sym_pocket.pdb
REMARK  240 active torsions:
REMARK  status: ('A' for Active; 'I' for Inactive)
REMARK    1  A    between atoms: _1  and  _3
REMARK    2  A    between atoms: _3  and  _4
REMARK    3  A    between atoms: _3  and  _6
REMARK    4  A    between atoms: _6  and  _7
REMARK    5  A    between atoms: _12  and  _13
REMARK    6  A    between atoms: _15  and  _17
REMARK    7  A    between atoms: _17  and  _18
REMARK    8  A    between atoms: _17  and  _20
REMARK    9  A    between atoms: _20  and  _21
REMARK   10  A    between atoms: _21  and  _22
REMARK   11  A    between atoms: _25  and  _27
REMARK   12  A    between atoms: _27  and  _28
REMARK   13  A    between atoms: _27  and  _30
REMARK   14  A    between atoms: _30  and  _31
REMARK   15  A    between atoms: _36  and  _37
REMARK   16  A    between atoms: _39  and  _41
REMARK   17  A    between atoms: _41  and  _42
REMARK   18  A    between atoms: _44  and  _46
REMARK   19  A    between atoms: _46  and  _47
REMARK   20  A    between atoms: _46  and  _49
REMARK   21  A    between atoms: _49  and  _50
REMARK   22  A    between atoms: _55  and  _57
REMARK   23  A    between atoms: _57  and  _58
REMARK   24  A    between atoms: _60  and  _62
REMARK   25  A    between atoms: _62  and  _63
REMARK   26  A    between atoms: _65  and  _67
REMARK   27  A    between atoms: _67  and  _68
REMARK   28  A    between atoms: _67  and  _70
REMARK   29  A    between atoms: _70  and  _71
REMARK   30  A    between atoms: _74  and  _76
REMARK   31  A    between atoms: _76  and  _77
REMARK   32  A    between atoms: _79  and  _81
REMARK   33  A    between atoms: _81  and  _82
REMARK   34  A    between atoms: _81  and  _84
REMARK   35  A    between atoms: _85  and  _86
REMARK   36  A    between atoms: _86  and  _87
REMARK   37  A    between atoms: _96  and  _98
REMARK   38  A    between atoms: _98  and  _99
REMARK   39  A    between atoms: _98  and  _101
REMARK   40  A    between atoms: _101  and  _102
REMARK   41  A    between atoms: _105  and  _107
REMARK   42  A    between atoms: _107  and  _108
REMARK   43  A    between atoms: _111  and  _113
REMARK   44  A    between atoms: _113  and  _114
REMARK   45  A    between atoms: _113  and  _116
REMARK   46  A    between atoms: _116  and  _117
REMARK   47  A    between atoms: _123  and  _125
REMARK   48  A    between atoms: _125  and  _126
REMARK   49  A    between atoms: _125  and  _128
REMARK   50  A    between atoms: _128  and  _129
REMARK   51  A    between atoms: _134  and  _136
REMARK   52  A    between atoms: _136  and  _137
REMARK   53  A    between atoms: _136  and  _139
REMARK   54  A    between atoms: _139  and  _140
REMARK   55  A    between atoms: _143  and  _145
REMARK   56  A    between atoms: _145  and  _146
REMARK   57  A    between atoms: _145  and  _148
REMARK   58  A    between atoms: _148  and  _149
REMARK   59  A    between atoms: _154  and  _156
REMARK   60  A    between atoms: _156  and  _157
REMARK   61  A    between atoms: _156  and  _159
REMARK   62  A    between atoms: _159  and  _160
REMARK   63  A    between atoms: _166  and  _168
REMARK   64  A    between atoms: _168  and  _169
REMARK   65  A    between atoms: _168  and  _171
REMARK   66  A    between atoms: _171  and  _172
REMARK   67  A    between atoms: _178  and  _180
REMARK   68  A    between atoms: _180  and  _181
REMARK   69  A    between atoms: _180  and  _183
REMARK   70  A    between atoms: _183  and  _184
REMARK   71  A    between atoms: _184  and  _185
REMARK   72  A    between atoms: _185  and  _186
REMARK   73  A    between atoms: _195  and  _197
REMARK   74  A    between atoms: _197  and  _198
REMARK   75  A    between atoms: _197  and  _200
REMARK   76  A    between atoms: _200  and  _201
REMARK   77  A    between atoms: _206  and  _208
REMARK   78  A    between atoms: _208  and  _209
REMARK   79  A    between atoms: _208  and  _211
REMARK   80  A    between atoms: _211  and  _212
REMARK   81  A    between atoms: _215  and  _217
REMARK   82  A    between atoms: _217  and  _218
REMARK   83  A    between atoms: _217  and  _220
REMARK   84  A    between atoms: _220  and  _221
REMARK   85  A    between atoms: _224  and  _226
REMARK   86  A    between atoms: _226  and  _227
REMARK   87  A    between atoms: _226  and  _229
REMARK   88  A    between atoms: _229  and  _230
REMARK   89  A    between atoms: _235  and  _237
REMARK   90  A    between atoms: _237  and  _238
REMARK   91  A    between atoms: _237  and  _240
REMARK   92  A    between atoms: _240  and  _241
REMARK   93  A    between atoms: _244  and  _246
REMARK   94  A    between atoms: _246  and  _247
REMARK   95  A    between atoms: _246  and  _249
REMARK   96  A    between atoms: _249  and  _250
REMARK   97  A    between atoms: _255  and  _257
REMARK   98  A    between atoms: _257  and  _258
REMARK   99  A    between atoms: _257  and  _260
REMARK  100  A    between atoms: _260  and  _261
REMARK  101  A    between atoms: _266  and  _268
REMARK  102  A    between atoms: _268  and  _269
REMARK  103  A    between atoms: _268  and  _271
REMARK  104  A    between atoms: _271  and  _272
REMARK  105  A    between atoms: _275  and  _277
REMARK  106  A    between atoms: _277  and  _278
REMARK  107  A    between atoms: _277  and  _280
REMARK  108  A    between atoms: _283  and  _285
REMARK  109  A    between atoms: _285  and  _286
REMARK  110  A    between atoms: _285  and  _288
REMARK  111  A    between atoms: _288  and  _289
REMARK  112  A    between atoms: _292  and  _294
REMARK  113  A    between atoms: _294  and  _295
REMARK  114  A    between atoms: _298  and  _300
REMARK  115  A    between atoms: _300  and  _301
REMARK  116  A    between atoms: _300  and  _303
REMARK  117  A    between atoms: _303  and  _304
REMARK  118  A    between atoms: _307  and  _309
REMARK  119  A    between atoms: _309  and  _310
REMARK  120  A    between atoms: _309  and  _312
REMARK  121  A    between atoms: _312  and  _313
REMARK  122  A    between atoms: _318  and  _320
REMARK  123  A    between atoms: _320  and  _321
REMARK  124  A    between atoms: _323  and  _325
REMARK  125  A    between atoms: _325  and  _326
REMARK  126  A    between atoms: _325  and  _328
REMARK  127  A    between atoms: _331  and  _333
REMARK  128  A    between atoms: _333  and  _334
REMARK  129  A    between atoms: _337  and  _339
REMARK  130  A    between atoms: _339  and  _340
REMARK  131  A    between atoms: _339  and  _342
REMARK  132  A    between atoms: _342  and  _343
REMARK  133  A    between atoms: _348  and  _350
REMARK  134  A    between atoms: _350  and  _351
REMARK  135  A    between atoms: _350  and  _353
REMARK  136  A    between atoms: _353  and  _354
REMARK  137  A    between atoms: _354  and  _355
REMARK  138  A    between atoms: _355  and  _356
REMARK  139  A    between atoms: _356  and  _357
REMARK  140  A    between atoms: _361  and  _363
REMARK  141  A    between atoms: _363  and  _364
REMARK  142  A    between atoms: _363  and  _366
REMARK  143  A    between atoms: _366  and  _367
REMARK  144  A    between atoms: _370  and  _372
REMARK  145  A    between atoms: _372  and  _373
REMARK  146  A    between atoms: _372  and  _375
REMARK  147  A    between atoms: _375  and  _376
REMARK  148  A    between atoms: _381  and  _383
REMARK  149  A    between atoms: _383  and  _384
REMARK  150  A    between atoms: _386  and  _388
REMARK  151  A    between atoms: _388  and  _389
REMARK  152  A    between atoms: _388  and  _391
REMARK  153  A    between atoms: _391  and  _392
REMARK  154  A    between atoms: _392  and  _393
REMARK  155  A    between atoms: _393  and  _394
REMARK  156  A    between atoms: _394  and  _395
REMARK  157  A    between atoms: _399  and  _401
REMARK  158  A    between atoms: _401  and  _402
REMARK  159  A    between atoms: _401  and  _404
REMARK  160  A    between atoms: _404  and  _405
REMARK  161  A    between atoms: _405  and  _406
REMARK  162  A    between atoms: _406  and  _407
REMARK  163  A    between atoms: _416  and  _418
REMARK  164  A    between atoms: _418  and  _419
REMARK  165  A    between atoms: _418  and  _421
REMARK  166  A    between atoms: _421  and  _422
REMARK  167  A    between atoms: _427  and  _428
REMARK  168  A    between atoms: _430  and  _432
REMARK  169  A    between atoms: _432  and  _433
REMARK  170  A    between atoms: _432  and  _435
REMARK  171  A    between atoms: _435  and  _436
REMARK  172  A    between atoms: _436  and  _437
REMARK  173  A    between atoms: _437  and  _438
REMARK  174  A    between atoms: _438  and  _439
REMARK  175  A    between atoms: _443  and  _445
REMARK  176  A    between atoms: _445  and  _446
REMARK  177  A    between atoms: _445  and  _448
REMARK  178  A    between atoms: _448  and  _449
REMARK  179  A    between atoms: _449  and  _450
REMARK  180  A    between atoms: _455  and  _457
REMARK  181  A    between atoms: _457  and  _458
REMARK  182  A    between atoms: _457  and  _460
REMARK  183  A    between atoms: _460  and  _461
REMARK  184  A    between atoms: _463  and  _465
REMARK  185  A    between atoms: _465  and  _466
REMARK  186  A    between atoms: _465  and  _468
REMARK  187  A    between atoms: _468  and  _469
REMARK  188  A    between atoms: _472  and  _474
REMARK  189  A    between atoms: _474  and  _475
REMARK  190  A    between atoms: _474  and  _477
REMARK  191  A    between atoms: _477  and  _478
REMARK  192  A    between atoms: _478  and  _479
REMARK  193  A    between atoms: _482  and  _484
REMARK  194  A    between atoms: _484  and  _485
REMARK  195  A    between atoms: _488  and  _490
REMARK  196  A    between atoms: _490  and  _491
REMARK  197  A    between atoms: _490  and  _493
REMARK  198  A    between atoms: _493  and  _494
REMARK  199  A    between atoms: _496  and  _498
REMARK  200  A    between atoms: _498  and  _499
REMARK  201  A    between atoms: _501  and  _503
REMARK  202  A    between atoms: _503  and  _504
REMARK  203  A    between atoms: _503  and  _506
REMARK  204  A    between atoms: _506  and  _507
REMARK  205  A    between atoms: _510  and  _512
REMARK  206  A    between atoms: _512  and  _513
REMARK  207  A    between atoms: _515  and  _517
REMARK  208  A    between atoms: _517  and  _518
REMARK  209  A    between atoms: _517  and  _520
REMARK  210  A    between atoms: _520  and  _521
REMARK  211  A    between atoms: _526  and  _528
REMARK  212  A    between atoms: _528  and  _529
REMARK  213  A    between atoms: _528  and  _531
REMARK  214  A    between atoms: _531  and  _532
REMARK  215  A    between atoms: _532  and  _533
REMARK  216  A    between atoms: _540  and  _541
REMARK  217  A    between atoms: _541  and  _557
REMARK  218  A    between atoms: _542  and  _544
REMARK  219  A    between atoms: _544  and  _545
REMARK  220  A    between atoms: _545  and  _546
REMARK  221  A    between atoms: _550  and  _552
REMARK  222  A    between atoms: _552  and  _553
REMARK  223  A    between atoms: _552  and  _560
REMARK  224  A    between atoms: _553  and  _554
REMARK  225  A    between atoms: _554  and  _555
REMARK  226  A    between atoms: _555  and  _556
REMARK  227  A    between atoms: _556  and  _557
REMARK  228  A    between atoms: _562  and  _564
REMARK  229  A    between atoms: _564  and  _565
REMARK  230  A    between atoms: _564  and  _567
REMARK  231  A    between atoms: _567  and  _568
REMARK  232  A    between atoms: _571  and  _573
REMARK  233  A    between atoms: _573  and  _574
REMARK  234  A    between atoms: _576  and  _578
REMARK  235  A    between atoms: _578  and  _579
REMARK  236  A    between atoms: _582  and  _584
REMARK  237  A    between atoms: _584  and  _585
REMARK  238  A    between atoms: _584  and  _587
REMARK  239  A    between atoms: _587  and  _588
REMARK  240  A    between atoms: _593  and  _594
REMARK                            x       y       z     vdW  Elec       q    Type
REMARK                         _______ _______ _______ _____ _____    ______ ____
ROOT
ATOM      1  O   HOH     1      33.235  26.049  33.075  0.00  0.00    +0.000 OA
ENDROOT
TORSDOF 0
REMARK  Name = ../refined-set-2016/3sym/3sym_pocket.pdb
REMARK  240 active torsions:
REMARK  status: ('A' for Active; 'I' for Inactive)
REMARK    1  A    between atoms: _1  and  _3
REMARK    2  A    between atoms: _3  and  _4
REMARK    3  A    between atoms: _3  and  _6
REMARK    4  A    between atoms: _6  and  _7
REMARK    5  A    between atoms: _12  and  _13
REMARK    6  A    between atoms: _15  and  _17
REMARK    7  A    between atoms: _17  and  _18
REMARK    8  A    between atoms: _17  and  _20
REMARK    9  A    between atoms: _20  and  _21
REMARK   10  A    between atoms: _21  and  _22
REMARK   11  A    between atoms: _25  and  _27
REMARK   12  A    between atoms: _27  and  _28
REMARK   13  A    between atoms: _27  and  _30
REMARK   14  A    between atoms: _30  and  _31
REMARK   15  A    between atoms: _36  and  _37
REMARK   16  A    between atoms: _39  and  _41
REMARK   17  A    between atoms: _41  and  _42
REMARK   18  A    between atoms: _44  and  _46
REMARK   19  A    between atoms: _46  and  _47
REMARK   20  A    between atoms: _46  and  _49
REMARK   21  A    between atoms: _49  and  _50
REMARK   22  A    between atoms: _55  and  _57
REMARK   23  A    between atoms: _57  and  _58
REMARK   24  A    between atoms: _60  and  _62
REMARK   25  A    between atoms: _62  and  _63
REMARK   26  A    between atoms: _65  and  _67
REMARK   27  A    between atoms: _67  and  _68
REMARK   28  A    between atoms: _67  and  _70
REMARK   29  A    between atoms: _70  and  _71
REMARK   30  A    between atoms: _74  and  _76
REMARK   31  A    between atoms: _76  and  _77
REMARK   32  A    between atoms: _79  and  _81
REMARK   33  A    between atoms: _81  and  _82
REMARK   34  A    between atoms: _81  and  _84
REMARK   35  A    between atoms: _85  and  _86
REMARK   36  A    between atoms: _86  and  _87
REMARK   37  A    between atoms: _96  and  _98
REMARK   38  A    between atoms: _98  and  _99
REMARK   39  A    between atoms: _98  and  _101
REMARK   40  A    between atoms: _101  and  _102
REMARK   41  A    between atoms: _105  and  _107
REMARK   42  A    between atoms: _107  and  _108
REMARK   43  A    between atoms: _111  and  _113
REMARK   44  A    between atoms: _113  and  _114
REMARK   45  A    between atoms: _113  and  _116
REMARK   46  A    between atoms: _116  and  _117
REMARK   47  A    between atoms: _123  and  _125
REMARK   48  A    between atoms: _125  and  _126
REMARK   49  A    between atoms: _125  and  _128
REMARK   50  A    between atoms: _128  and  _129
REMARK   51  A    between atoms: _134  and  _136
REMARK   52  A    between atoms: _136  and  _137
REMARK   53  A    between atoms: _136  and  _139
REMARK   54  A    between atoms: _139  and  _140
REMARK   55  A    between atoms: _143  and  _145
REMARK   56  A    between atoms: _145  and  _146
REMARK   57  A    between atoms: _145  and  _148
REMARK   58  A    between atoms: _148  and  _149
REMARK   59  A    between atoms: _154  and  _156
REMARK   60  A    between atoms: _156  and  _157
REMARK   61  A    between atoms: _156  and  _159
REMARK   62  A    between atoms: _159  and  _160
REMARK   63  A    between atoms: _166  and  _168
REMARK   64  A    between atoms: _168  and  _169
REMARK   65  A    between atoms: _168  and  _171
REMARK   66  A    between atoms: _171  and  _172
REMARK   67  A    between atoms: _178  and  _180
REMARK   68  A    between atoms: _180  and  _181
REMARK   69  A    between atoms: _180  and  _183
REMARK   70  A    between atoms: _183  and  _184
REMARK   71  A    between atoms: _184  and  _185
REMARK   72  A    between atoms: _185  and  _186
REMARK   73  A    between atoms: _195  and  _197
REMARK   74  A    between atoms: _197  and  _198
REMARK   75  A    between atoms: _197  and  _200
REMARK   76  A    between atoms: _200  and  _201
REMARK   77  A    between atoms: _206  and  _208
REMARK   78  A    between atoms: _208  and  _209
REMARK   79  A    between atoms: _208  and  _211
REMARK   80  A    between atoms: _211  and  _212
REMARK   81  A    between atoms: _215  and  _217
REMARK   82  A    between atoms: _217  and  _218
REMARK   83  A    between atoms: _217  and  _220
REMARK   84  A    between atoms: _220  and  _221
REMARK   85  A    between atoms: _224  and  _226
REMARK   86  A    between atoms: _226  and  _227
REMARK   87  A    between atoms: _226  and  _229
REMARK   88  A    between atoms: _229  and  _230
REMARK   89  A    between atoms: _235  and  _237
REMARK   90  A    between atoms: _237  and  _238
REMARK   91  A    between atoms: _237  and  _240
REMARK   92  A    between atoms: _240  and  _241
REMARK   93  A    between atoms: _244  and  _246
REMARK   94  A    between atoms: _246  and  _247
REMARK   95  A    between atoms: _246  and  _249
REMARK   96  A    between atoms: _249  and  _250
REMARK   97  A    between atoms: _255  and  _257
REMARK   98  A    between atoms: _257  and  _258
REMARK   99  A    between atoms: _257  and  _260
REMARK  100  A    between atoms: _260  and  _261
REMARK  101  A    between atoms: _266  and  _268
REMARK  102  A    between atoms: _268  and  _269
REMARK  103  A    between atoms: _268  and  _271
REMARK  104  A    between atoms: _271  and  _272
REMARK  105  A    between atoms: _275  and  _277
REMARK  106  A    between atoms: _277  and  _278
REMARK  107  A    between atoms: _277  and  _280
REMARK  108  A    between atoms: _283  and  _285
REMARK  109  A    between atoms: _285  and  _286
REMARK  110  A    between atoms: _285  and  _288
REMARK  111  A    between atoms: _288  and  _289
REMARK  112  A    between atoms: _292  and  _294
REMARK  113  A    between atoms: _294  and  _295
REMARK  114  A    between atoms: _298  and  _300
REMARK  115  A    between atoms: _300  and  _301
REMARK  116  A    between atoms: _300  and  _303
REMARK  117  A    between atoms: _303  and  _304
REMARK  118  A    between atoms: _307  and  _309
REMARK  119  A    between atoms: _309  and  _310
REMARK  120  A    between atoms: _309  and  _312
REMARK  121  A    between atoms: _312  and  _313
REMARK  122  A    between atoms: _318  and  _320
REMARK  123  A    between atoms: _320  and  _321
REMARK  124  A    between atoms: _323  and  _325
REMARK  125  A    between atoms: _325  and  _326
REMARK  126  A    between atoms: _325  and  _328
REMARK  127  A    between atoms: _331  and  _333
REMARK  128  A    between atoms: _333  and  _334
REMARK  129  A    between atoms: _337  and  _339
REMARK  130  A    between atoms: _339  and  _340
REMARK  131  A    between atoms: _339  and  _342
REMARK  132  A    between atoms: _342  and  _343
REMARK  133  A    between atoms: _348  and  _350
REMARK  134  A    between atoms: _350  and  _351
REMARK  135  A    between atoms: _350  and  _353
REMARK  136  A    between atoms: _353  and  _354
REMARK  137  A    between atoms: _354  and  _355
REMARK  138  A    between atoms: _355  and  _356
REMARK  139  A    between atoms: _356  and  _357
REMARK  140  A    between atoms: _361  and  _363
REMARK  141  A    between atoms: _363  and  _364
REMARK  142  A    between atoms: _363  and  _366
REMARK  143  A    between atoms: _366  and  _367
REMARK  144  A    between atoms: _370  and  _372
REMARK  145  A    between atoms: _372  and  _373
REMARK  146  A    between atoms: _372  and  _375
REMARK  147  A    between atoms: _375  and  _376
REMARK  148  A    between atoms: _381  and  _383
REMARK  149  A    between atoms: _383  and  _384
REMARK  150  A    between atoms: _386  and  _388
REMARK  151  A    between atoms: _388  and  _389
REMARK  152  A    between atoms: _388  and  _391
REMARK  153  A    between atoms: _391  and  _392
REMARK  154  A    between atoms: _392  and  _393
REMARK  155  A    between atoms: _393  and  _394
REMARK  156  A    between atoms: _394  and  _395
REMARK  157  A    between atoms: _399  and  _401
REMARK  158  A    between atoms: _401  and  _402
REMARK  159  A    between atoms: _401  and  _404
REMARK  160  A    between atoms: _404  and  _405
REMARK  161  A    between atoms: _405  and  _406
REMARK  162  A    between atoms: _406  and  _407
REMARK  163  A    between atoms: _416  and  _418
REMARK  164  A    between atoms: _418  and  _419
REMARK  165  A    between atoms: _418  and  _421
REMARK  166  A    between atoms: _421  and  _422
REMARK  167  A    between atoms: _427  and  _428
REMARK  168  A    between atoms: _430  and  _432
REMARK  169  A    between atoms: _432  and  _433
REMARK  170  A    between atoms: _432  and  _435
REMARK  171  A    between atoms: _435  and  _436
REMARK  172  A    between atoms: _436  and  _437
REMARK  173  A    between atoms: _437  and  _438
REMARK  174  A    between atoms: _438  and  _439
REMARK  175  A    between atoms: _443  and  _445
REMARK  176  A    between atoms: _445  and  _446
REMARK  177  A    between atoms: _445  and  _448
REMARK  178  A    between atoms: _448  and  _449
REMARK  179  A    between atoms: _449  and  _450
REMARK  180  A    between atoms: _455  and  _457
REMARK  181  A    between atoms: _457  and  _458
REMARK  182  A    between atoms: _457  and  _460
REMARK  183  A    between atoms: _460  and  _461
REMARK  184  A    between atoms: _463  and  _465
REMARK  185  A    between atoms: _465  and  _466
REMARK  186  A    between atoms: _465  and  _468
REMARK  187  A    between atoms: _468  and  _469
REMARK  188  A    between atoms: _472  and  _474
REMARK  189  A    between atoms: _474  and  _475
REMARK  190  A    between atoms: _474  and  _477
REMARK  191  A    between atoms: _477  and  _478
REMARK  192  A    between atoms: _478  and  _479
REMARK  193  A    between atoms: _482  and  _484
REMARK  194  A    between atoms: _484  and  _485
REMARK  195  A    between atoms: _488  and  _490
REMARK  196  A    between atoms: _490  and  _491
REMARK  197  A    between atoms: _490  and  _493
REMARK  198  A    between atoms: _493  and  _494
REMARK  199  A    between atoms: _496  and  _498
REMARK  200  A    between atoms: _498  and  _499
REMARK  201  A    between atoms: _501  and  _503
REMARK  202  A    between atoms: _503  and  _504
REMARK  203  A    between atoms: _503  and  _506
REMARK  204  A    between atoms: _506  and  _507
REMARK  205  A    between atoms: _510  and  _512
REMARK  206  A    between atoms: _512  and  _513
REMARK  207  A    between atoms: _515  and  _517
REMARK  208  A    between atoms: _517  and  _518
REMARK  209  A    between atoms: _517  and  _520
REMARK  210  A    between atoms: _520  and  _521
REMARK  211  A    between atoms: _526  and  _528
REMARK  212  A    between atoms: _528  and  _529
REMARK  213  A    between atoms: _528  and  _531
REMARK  214  A    between atoms: _531  and  _532
REMARK  215  A    between atoms: _532  and  _533
REMARK  216  A    between atoms: _540  and  _541
REMARK  217  A    between atoms: _541  and  _557
REMARK  218  A    between atoms: _542  and  _544
REMARK  219  A    between atoms: _544  and  _545
REMARK  220  A    between atoms: _545  and  _546
REMARK  221  A    between atoms: _550  and  _552
REMARK  222  A    between atoms: _552  and  _553
REMARK  223  A    between atoms: _552  and  _560
REMARK  224  A    between atoms: _553  and  _554
REMARK  225  A    between atoms: _554  and  _555
REMARK  226  A    between atoms: _555  and  _556
REMARK  227  A    between atoms: _556  and  _557
REMARK  228  A    between atoms: _562  and  _564
REMARK  229  A    between atoms: _564  and  _565
REMARK  230  A    between atoms: _564  and  _567
REMARK  231  A    between atoms: _567  and  _568
REMARK  232  A    between atoms: _571  and  _573
REMARK  233  A    between atoms: _573  and  _574
REMARK  234  A    between atoms: _576  and  _578
REMARK  235  A    between atoms: _578  and  _579
REMARK  236  A    between atoms: _582  and  _584
REMARK  237  A    between atoms: _584  and  _585
REMARK  238  A    between atoms: _584  and  _587
REMARK  239  A    between atoms: _587  and  _588
REMARK  240  A    between atoms: _593  and  _594
REMARK                            x       y       z     vdW  Elec       q    Type
REMARK                         _______ _______ _______ _____ _____    ______ ____
ROOT
ATOM      1  O   HOH     1      35.941  24.341  24.551  0.00  0.00    +0.000 OA
ENDROOT
TORSDOF 0
