REMARK  Name = ../refined-set-2016/3muz/3muz_pocket.pdb
REMARK  190 active torsions:
REMARK  status: ('A' for Active; 'I' for Inactive)
REMARK    1  A    between atoms: _1  and  _3
REMARK    2  A    between atoms: _3  and  _4
REMARK    3  A    between atoms: _3  and  _6
REMARK    4  A    between atoms: _6  and  _7
REMARK    5  A    between atoms: _12  and  _13
REMARK    6  A    between atoms: _15  and  _17
REMARK    7  A    between atoms: _17  and  _18
REMARK    8  A    between atoms: _17  and  _20
REMARK    9  A    between atoms: _20  and  _21
REMARK   10  A    between atoms: _26  and  _28
REMARK   11  A    between atoms: _28  and  _29
REMARK   12  A    between atoms: _28  and  _31
REMARK   13  A    between atoms: _34  and  _36
REMARK   14  A    between atoms: _36  and  _37
REMARK   15  A    between atoms: _36  and  _39
REMARK   16  A    between atoms: _39  and  _40
REMARK   17  A    between atoms: _43  and  _45
REMARK   18  A    between atoms: _45  and  _46
REMARK   19  A    between atoms: _45  and  _48
REMARK   20  A    between atoms: _48  and  _49
REMARK   21  A    between atoms: _52  and  _54
REMARK   22  A    between atoms: _54  and  _55
REMARK   23  A    between atoms: _54  and  _57
REMARK   24  A    between atoms: _57  and  _58
REMARK   25  A    between atoms: _58  and  _59
REMARK   26  A    between atoms: _64  and  _66
REMARK   27  A    between atoms: _66  and  _67
REMARK   28  A    between atoms: _66  and  _69
REMARK   29  A    between atoms: _69  and  _70
REMARK   30  A    between atoms: _73  and  _75
REMARK   31  A    between atoms: _75  and  _76
REMARK   32  A    between atoms: _75  and  _78
REMARK   33  A    between atoms: _78  and  _79
REMARK   34  A    between atoms: _79  and  _80
REMARK   35  A    between atoms: _82  and  _84
REMARK   36  A    between atoms: _84  and  _85
REMARK   37  A    between atoms: _84  and  _87
REMARK   38  A    between atoms: _87  and  _88
REMARK   39  A    between atoms: _93  and  _95
REMARK   40  A    between atoms: _95  and  _96
REMARK   41  A    between atoms: _95  and  _98
REMARK   42  A    between atoms: _98  and  _99
REMARK   43  A    between atoms: _104  and  _106
REMARK   44  A    between atoms: _106  and  _107
REMARK   45  A    between atoms: _106  and  _109
REMARK   46  A    between atoms: _109  and  _110
REMARK   47  A    between atoms: _110  and  _111
REMARK   48  A    between atoms: _111  and  _112
REMARK   49  A    between atoms: _121  and  _123
REMARK   50  A    between atoms: _123  and  _124
REMARK   51  A    between atoms: _123  and  _126
REMARK   52  A    between atoms: _126  and  _127
REMARK   53  A    between atoms: _132  and  _134
REMARK   54  A    between atoms: _134  and  _135
REMARK   55  A    between atoms: _134  and  _137
REMARK   56  A    between atoms: _137  and  _138
REMARK   57  A    between atoms: _138  and  _139
REMARK   58  A    between atoms: _139  and  _141
REMARK   59  A    between atoms: _141  and  MG_450
REMARK   60  A    between atoms: _142  and  _144
REMARK   61  A    between atoms: _144  and  _145
REMARK   62  A    between atoms: _144  and  _147
REMARK   63  A    between atoms: _147  and  _148
REMARK   64  A    between atoms: _153  and  _155
REMARK   65  A    between atoms: _155  and  _156
REMARK   66  A    between atoms: _155  and  _158
REMARK   67  A    between atoms: _158  and  _159
REMARK   68  A    between atoms: _159  and  _160
REMARK   69  A    between atoms: _162  and  _164
REMARK   70  A    between atoms: _164  and  _165
REMARK   71  A    between atoms: _164  and  _167
REMARK   72  A    between atoms: _167  and  _168
REMARK   73  A    between atoms: _173  and  _175
REMARK   74  A    between atoms: _175  and  _176
REMARK   75  A    between atoms: _175  and  _178
REMARK   76  A    between atoms: _178  and  _179
REMARK   77  A    between atoms: _179  and  _180
REMARK   78  A    between atoms: _180  and  _181
REMARK   79  A    between atoms: _181  and  MG_450
REMARK   80  A    between atoms: _183  and  _185
REMARK   81  A    between atoms: _185  and  _186
REMARK   82  A    between atoms: _185  and  _188
REMARK   83  A    between atoms: _188  and  _189
REMARK   84  A    between atoms: _189  and  _190
REMARK   85  A    between atoms: _193  and  _195
REMARK   86  A    between atoms: _195  and  _196
REMARK   87  A    between atoms: _195  and  _198
REMARK   88  A    between atoms: _198  and  _199
REMARK   89  A    between atoms: _199  and  _200
REMARK   90  A    between atoms: _202  and  _204
REMARK   91  A    between atoms: _204  and  _205
REMARK   92  A    between atoms: _204  and  _207
REMARK   93  A    between atoms: _207  and  _208
REMARK   94  A    between atoms: _213  and  _214
REMARK   95  A    between atoms: _216  and  _218
REMARK   96  A    between atoms: _218  and  _219
REMARK   97  A    between atoms: _218  and  _221
REMARK   98  A    between atoms: _221  and  _222
REMARK   99  A    between atoms: _222  and  _223
REMARK  100  A    between atoms: _223  and  _224
REMARK  101  A    between atoms: _224  and  _225
REMARK  102  A    between atoms: _229  and  _231
REMARK  103  A    between atoms: _231  and  _232
REMARK  104  A    between atoms: _231  and  _234
REMARK  105  A    between atoms: _236  and  _238
REMARK  106  A    between atoms: _238  and  _239
REMARK  107  A    between atoms: _238  and  _241
REMARK  108  A    between atoms: _241  and  _242
REMARK  109  A    between atoms: _242  and  _243
REMARK  110  A    between atoms: _246  and  _248
REMARK  111  A    between atoms: _248  and  _249
REMARK  112  A    between atoms: _248  and  _251
REMARK  113  A    between atoms: _251  and  _252
REMARK  114  A    between atoms: _257  and  _259
REMARK  115  A    between atoms: _259  and  _260
REMARK  116  A    between atoms: _263  and  _265
REMARK  117  A    between atoms: _265  and  _266
REMARK  118  A    between atoms: _265  and  _268
REMARK  119  A    between atoms: _268  and  _269
REMARK  120  A    between atoms: _269  and  _270
REMARK  121  A    between atoms: _272  and  _274
REMARK  122  A    between atoms: _274  and  _275
REMARK  123  A    between atoms: _274  and  _277
REMARK  124  A    between atoms: _277  and  _278
REMARK  125  A    between atoms: _288  and  _290
REMARK  126  A    between atoms: _290  and  _291
REMARK  127  A    between atoms: _290  and  _293
REMARK  128  A    between atoms: _293  and  _294
REMARK  129  A    between atoms: _297  and  _299
REMARK  130  A    between atoms: _299  and  _300
REMARK  131  A    between atoms: _299  and  _302
REMARK  132  A    between atoms: _302  and  _303
REMARK  133  A    between atoms: _303  and  _304
REMARK  134  A    between atoms: _309  and  _311
REMARK  135  A    between atoms: _311  and  _312
REMARK  136  A    between atoms: _311  and  _314
REMARK  137  A    between atoms: _314  and  _315
REMARK  138  A    between atoms: _318  and  _320
REMARK  139  A    between atoms: _320  and  _321
REMARK  140  A    between atoms: _320  and  _323
REMARK  141  A    between atoms: _323  and  _324
REMARK  142  A    between atoms: _324  and  _325
REMARK  143  A    between atoms: _330  and  _332
REMARK  144  A    between atoms: _332  and  _333
REMARK  145  A    between atoms: _332  and  _335
REMARK  146  A    between atoms: _335  and  _336
REMARK  147  A    between atoms: _342  and  _344
REMARK  148  A    between atoms: _344  and  _345
REMARK  149  A    between atoms: _344  and  _347
REMARK  150  A    between atoms: _349  and  _351
REMARK  151  A    between atoms: _351  and  _352
REMARK  152  A    between atoms: _351  and  _354
REMARK  153  A    between atoms: _354  and  _355
REMARK  154  A    between atoms: _355  and  _356
REMARK  155  A    between atoms: _358  and  _360
REMARK  156  A    between atoms: _360  and  _361
REMARK  157  A    between atoms: _360  and  _363
REMARK  158  A    between atoms: _363  and  _364
REMARK  159  A    between atoms: _369  and  _371
REMARK  160  A    between atoms: _371  and  _372
REMARK  161  A    between atoms: _374  and  _376
REMARK  162  A    between atoms: _376  and  _377
REMARK  163  A    between atoms: _376  and  _379
REMARK  164  A    between atoms: _382  and  _384
REMARK  165  A    between atoms: _384  and  _385
REMARK  166  A    between atoms: _384  and  _387
REMARK  167  A    between atoms: _387  and  _388
REMARK  168  A    between atoms: _391  and  _393
REMARK  169  A    between atoms: _393  and  _394
REMARK  170  A    between atoms: _393  and  _396
REMARK  171  A    between atoms: _396  and  _397
REMARK  172  A    between atoms: _399  and  _401
REMARK  173  A    between atoms: _401  and  _402
REMARK  174  A    between atoms: _401  and  _404
REMARK  175  A    between atoms: _404  and  _405
REMARK  176  A    between atoms: _415  and  _417
REMARK  177  A    between atoms: _417  and  _418
REMARK  178  A    between atoms: _417  and  _420
REMARK  179  A    between atoms: _420  and  _421
REMARK  180  A    between atoms: _423  and  _425
REMARK  181  A    between atoms: _425  and  _426
REMARK  182  A    between atoms: _425  and  _428
REMARK  183  A    between atoms: _428  and  _429
REMARK  184  A    between atoms: _429  and  _430
REMARK  185  A    between atoms: _433  and  _435
REMARK  186  A    between atoms: _435  and  _436
REMARK  187  A    between atoms: _435  and  _438
REMARK  188  A    between atoms: _438  and  _439
REMARK  189  A    between atoms: _439  and  _440
REMARK  190  A    between atoms: _440  and  _441
REMARK                            x       y       z     vdW  Elec       q    Type
REMARK                         _______ _______ _______ _____ _____    ______ ____
ROOT
ATOM      1  CG  TYR A   1      12.896  38.578  70.887  0.00  0.00    -0.020 A 
ATOM      2  CD2 TYR A   1      12.050  37.866  71.745  0.00  0.00    -0.001 A 
ATOM      3  CE2 TYR A   1      12.242  36.508  71.993  0.00  0.00    +0.036 A 
ATOM      4  CZ  TYR A   1      13.285  35.843  71.375  0.00  0.00    +0.134 A 
ATOM      5  CE1 TYR A   1      14.131  36.521  70.499  0.00  0.00    +0.036 A 
ATOM      6  CD1 TYR A   1      13.931  37.884  70.260  0.00  0.00    -0.001 A 
ENDROOT
BRANCH   4   7
ATOM      7  OH  TYR A   1      13.516  34.520  71.678  0.00  0.00    -0.506 OA
ATOM      8  HH  TYR A   1      12.824  34.202  72.310  0.00  0.00    +0.292 HD
ENDBRANCH   4   7
BRANCH   1   9
ATOM      9  CB  TYR A   1      12.788  40.085  70.790  0.00  0.00    +0.051 C 
BRANCH   9  10
ATOM     10  CA  TYR A   1      12.895  40.679  72.194  0.00  0.00    +0.137 C 
BRANCH  10  11
ATOM     11  N   TYR A   1      12.950  42.126  72.207  0.00  0.00    -0.239 NA
ATOM     12  H   TYR A   1      13.654  42.637  71.637  0.00  0.00    +0.142 HD
ENDBRANCH  10  11
BRANCH  10  13
ATOM     13  C   TYR A   1      14.096  40.051  72.875  0.00  0.00    +0.224 C 
ATOM     14  O   TYR A   1      15.211  40.081  72.354  0.00  0.00    -0.287 OA
ENDBRANCH  10  13
ENDBRANCH   9  10
ENDBRANCH   1   9
TORSDOF 5
REMARK  Name = ../refined-set-2016/3muz/3muz_pocket.pdb
REMARK  190 active torsions:
REMARK  status: ('A' for Active; 'I' for Inactive)
REMARK    1  A    between atoms: _1  and  _3
REMARK    2  A    between atoms: _3  and  _4
REMARK    3  A    between atoms: _3  and  _6
REMARK    4  A    between atoms: _6  and  _7
REMARK    5  A    between atoms: _12  and  _13
REMARK    6  A    between atoms: _15  and  _17
REMARK    7  A    between atoms: _17  and  _18
REMARK    8  A    between atoms: _17  and  _20
REMARK    9  A    between atoms: _20  and  _21
REMARK   10  A    between atoms: _26  and  _28
REMARK   11  A    between atoms: _28  and  _29
REMARK   12  A    between atoms: _28  and  _31
REMARK   13  A    between atoms: _34  and  _36
REMARK   14  A    between atoms: _36  and  _37
REMARK   15  A    between atoms: _36  and  _39
REMARK   16  A    between atoms: _39  and  _40
REMARK   17  A    between atoms: _43  and  _45
REMARK   18  A    between atoms: _45  and  _46
REMARK   19  A    between atoms: _45  and  _48
REMARK   20  A    between atoms: _48  and  _49
REMARK   21  A    between atoms: _52  and  _54
REMARK   22  A    between atoms: _54  and  _55
REMARK   23  A    between atoms: _54  and  _57
REMARK   24  A    between atoms: _57  and  _58
REMARK   25  A    between atoms: _58  and  _59
REMARK   26  A    between atoms: _64  and  _66
REMARK   27  A    between atoms: _66  and  _67
REMARK   28  A    between atoms: _66  and  _69
REMARK   29  A    between atoms: _69  and  _70
REMARK   30  A    between atoms: _73  and  _75
REMARK   31  A    between atoms: _75  and  _76
REMARK   32  A    between atoms: _75  and  _78
REMARK   33  A    between atoms: _78  and  _79
REMARK   34  A    between atoms: _79  and  _80
REMARK   35  A    between atoms: _82  and  _84
REMARK   36  A    between atoms: _84  and  _85
REMARK   37  A    between atoms: _84  and  _87
REMARK   38  A    between atoms: _87  and  _88
REMARK   39  A    between atoms: _93  and  _95
REMARK   40  A    between atoms: _95  and  _96
REMARK   41  A    between atoms: _95  and  _98
REMARK   42  A    between atoms: _98  and  _99
REMARK   43  A    between atoms: _104  and  _106
REMARK   44  A    between atoms: _106  and  _107
REMARK   45  A    between atoms: _106  and  _109
REMARK   46  A    between atoms: _109  and  _110
REMARK   47  A    between atoms: _110  and  _111
REMARK   48  A    between atoms: _111  and  _112
REMARK   49  A    between atoms: _121  and  _123
REMARK   50  A    between atoms: _123  and  _124
REMARK   51  A    between atoms: _123  and  _126
REMARK   52  A    between atoms: _126  and  _127
REMARK   53  A    between atoms: _132  and  _134
REMARK   54  A    between atoms: _134  and  _135
REMARK   55  A    between atoms: _134  and  _137
REMARK   56  A    between atoms: _137  and  _138
REMARK   57  A    between atoms: _138  and  _139
REMARK   58  A    between atoms: _139  and  _141
REMARK   59  A    between atoms: _141  and  MG_450
REMARK   60  A    between atoms: _142  and  _144
REMARK   61  A    between atoms: _144  and  _145
REMARK   62  A    between atoms: _144  and  _147
REMARK   63  A    between atoms: _147  and  _148
REMARK   64  A    between atoms: _153  and  _155
REMARK   65  A    between atoms: _155  and  _156
REMARK   66  A    between atoms: _155  and  _158
REMARK   67  A    between atoms: _158  and  _159
REMARK   68  A    between atoms: _159  and  _160
REMARK   69  A    between atoms: _162  and  _164
REMARK   70  A    between atoms: _164  and  _165
REMARK   71  A    between atoms: _164  and  _167
REMARK   72  A    between atoms: _167  and  _168
REMARK   73  A    between atoms: _173  and  _175
REMARK   74  A    between atoms: _175  and  _176
REMARK   75  A    between atoms: _175  and  _178
REMARK   76  A    between atoms: _178  and  _179
REMARK   77  A    between atoms: _179  and  _180
REMARK   78  A    between atoms: _180  and  _181
REMARK   79  A    between atoms: _181  and  MG_450
REMARK   80  A    between atoms: _183  and  _185
REMARK   81  A    between atoms: _185  and  _186
REMARK   82  A    between atoms: _185  and  _188
REMARK   83  A    between atoms: _188  and  _189
REMARK   84  A    between atoms: _189  and  _190
REMARK   85  A    between atoms: _193  and  _195
REMARK   86  A    between atoms: _195  and  _196
REMARK   87  A    between atoms: _195  and  _198
REMARK   88  A    between atoms: _198  and  _199
REMARK   89  A    between atoms: _199  and  _200
REMARK   90  A    between atoms: _202  and  _204
REMARK   91  A    between atoms: _204  and  _205
REMARK   92  A    between atoms: _204  and  _207
REMARK   93  A    between atoms: _207  and  _208
REMARK   94  A    between atoms: _213  and  _214
REMARK   95  A    between atoms: _216  and  _218
REMARK   96  A    between atoms: _218  and  _219
REMARK   97  A    between atoms: _218  and  _221
REMARK   98  A    between atoms: _221  and  _222
REMARK   99  A    between atoms: _222  and  _223
REMARK  100  A    between atoms: _223  and  _224
REMARK  101  A    between atoms: _224  and  _225
REMARK  102  A    between atoms: _229  and  _231
REMARK  103  A    between atoms: _231  and  _232
REMARK  104  A    between atoms: _231  and  _234
REMARK  105  A    between atoms: _236  and  _238
REMARK  106  A    between atoms: _238  and  _239
REMARK  107  A    between atoms: _238  and  _241
REMARK  108  A    between atoms: _241  and  _242
REMARK  109  A    between atoms: _242  and  _243
REMARK  110  A    between atoms: _246  and  _248
REMARK  111  A    between atoms: _248  and  _249
REMARK  112  A    between atoms: _248  and  _251
REMARK  113  A    between atoms: _251  and  _252
REMARK  114  A    between atoms: _257  and  _259
REMARK  115  A    between atoms: _259  and  _260
REMARK  116  A    between atoms: _263  and  _265
REMARK  117  A    between atoms: _265  and  _266
REMARK  118  A    between atoms: _265  and  _268
REMARK  119  A    between atoms: _268  and  _269
REMARK  120  A    between atoms: _269  and  _270
REMARK  121  A    between atoms: _272  and  _274
REMARK  122  A    between atoms: _274  and  _275
REMARK  123  A    between atoms: _274  and  _277
REMARK  124  A    between atoms: _277  and  _278
REMARK  125  A    between atoms: _288  and  _290
REMARK  126  A    between atoms: _290  and  _291
REMARK  127  A    between atoms: _290  and  _293
REMARK  128  A    between atoms: _293  and  _294
REMARK  129  A    between atoms: _297  and  _299
REMARK  130  A    between atoms: _299  and  _300
REMARK  131  A    between atoms: _299  and  _302
REMARK  132  A    between atoms: _302  and  _303
REMARK  133  A    between atoms: _303  and  _304
REMARK  134  A    between atoms: _309  and  _311
REMARK  135  A    between atoms: _311  and  _312
REMARK  136  A    between atoms: _311  and  _314
REMARK  137  A    between atoms: _314  and  _315
REMARK  138  A    between atoms: _318  and  _320
REMARK  139  A    between atoms: _320  and  _321
REMARK  140  A    between atoms: _320  and  _323
REMARK  141  A    between atoms: _323  and  _324
REMARK  142  A    between atoms: _324  and  _325
REMARK  143  A    between atoms: _330  and  _332
REMARK  144  A    between atoms: _332  and  _333
REMARK  145  A    between atoms: _332  and  _335
REMARK  146  A    between atoms: _335  and  _336
REMARK  147  A    between atoms: _342  and  _344
REMARK  148  A    between atoms: _344  and  _345
REMARK  149  A    between atoms: _344  and  _347
REMARK  150  A    between atoms: _349  and  _351
REMARK  151  A    between atoms: _351  and  _352
REMARK  152  A    between atoms: _351  and  _354
REMARK  153  A    between atoms: _354  and  _355
REMARK  154  A    between atoms: _355  and  _356
REMARK  155  A    between atoms: _358  and  _360
REMARK  156  A    between atoms: _360  and  _361
REMARK  157  A    between atoms: _360  and  _363
REMARK  158  A    between atoms: _363  and  _364
REMARK  159  A    between atoms: _369  and  _371
REMARK  160  A    between atoms: _371  and  _372
REMARK  161  A    between atoms: _374  and  _376
REMARK  162  A    between atoms: _376  and  _377
REMARK  163  A    between atoms: _376  and  _379
REMARK  164  A    between atoms: _382  and  _384
REMARK  165  A    between atoms: _384  and  _385
REMARK  166  A    between atoms: _384  and  _387
REMARK  167  A    between atoms: _387  and  _388
REMARK  168  A    between atoms: _391  and  _393
REMARK  169  A    between atoms: _393  and  _394
REMARK  170  A    between atoms: _393  and  _396
REMARK  171  A    between atoms: _396  and  _397
REMARK  172  A    between atoms: _399  and  _401
REMARK  173  A    between atoms: _401  and  _402
REMARK  174  A    between atoms: _401  and  _404
REMARK  175  A    between atoms: _404  and  _405
REMARK  176  A    between atoms: _415  and  _417
REMARK  177  A    between atoms: _417  and  _418
REMARK  178  A    between atoms: _417  and  _420
REMARK  179  A    between atoms: _420  and  _421
REMARK  180  A    between atoms: _423  and  _425
REMARK  181  A    between atoms: _425  and  _426
REMARK  182  A    between atoms: _425  and  _428
REMARK  183  A    between atoms: _428  and  _429
REMARK  184  A    between atoms: _429  and  _430
REMARK  185  A    between atoms: _433  and  _435
REMARK  186  A    between atoms: _435  and  _436
REMARK  187  A    between atoms: _435  and  _438
REMARK  188  A    between atoms: _438  and  _439
REMARK  189  A    between atoms: _439  and  _440
REMARK  190  A    between atoms: _440  and  _441
REMARK                            x       y       z     vdW  Elec       q    Type
REMARK                         _______ _______ _______ _____ _____    ______ ____
ROOT
ATOM      1  CA  VAL A   2      16.002  34.427  79.215  0.00  0.00    +0.148 C 
ENDROOT
BRANCH   1   4
ATOM      2  C   ASN A   1      14.641  34.955  77.277  0.00  0.00    +0.239 C 
ATOM      3  O   ASN A   1      13.630  35.099  77.963  0.00  0.00    -0.274 OA
ATOM      4  N   VAL A   2      15.826  34.644  77.788  0.00  0.00    -0.297 N 
ATOM      5  H   VAL A   2      16.646  34.554  77.154  0.00  0.00    +0.150 HD
BRANCH   2   6
ATOM      6  CA  ASN A   1      14.587  35.132  75.767  0.00  0.00    +0.154 C 
BRANCH   6   7
ATOM      7  N   ASN A   1      15.053  36.443  75.340  0.00  0.00    -0.238 NA
ATOM      8  H   ASN A   1      16.044  36.552  75.044  0.00  0.00    +0.142 HD
ENDBRANCH   6   7
BRANCH   6   9
ATOM      9  CB  ASN A   1      15.424  34.037  75.096  0.00  0.00    +0.111 C 
BRANCH   9  10
ATOM     10  CG  ASN A   1      14.969  32.643  75.476  0.00  0.00    +0.221 C 
ATOM     11  OD1 ASN A   1      14.101  32.476  76.328  0.00  0.00    -0.275 OA
ATOM     12  ND2 ASN A   1      15.559  31.634  74.848  0.00  0.00    -0.329 N 
ATOM     13 HD21 ASN A   1      15.291  30.654  75.071  0.00  0.00    +0.145 HD
ATOM     14 HD22 ASN A   1      16.290  31.823  74.133  0.00  0.00    +0.145 HD
ENDBRANCH   9  10
ENDBRANCH   6   9
ENDBRANCH   2   6
ENDBRANCH   1   4
BRANCH   1  15
ATOM     15  C   VAL A   2      16.395  35.675  80.005  0.00  0.00    +0.241 C 
ATOM     16  O   VAL A   2      15.767  36.000  81.013  0.00  0.00    -0.273 OA
ATOM     17  N   THR A   3      17.433  36.373  79.559  0.00  0.00    -0.296 N 
ATOM     18  H   THR A   3      17.928  36.069  78.696  0.00  0.00    +0.150 HD
BRANCH  17  19
ATOM     19  CA  THR A   3      17.884  37.564  80.272  0.00  0.00    +0.164 C 
BRANCH  19  20
ATOM     20  C   THR A   3      16.774  38.606  80.376  0.00  0.00    +0.229 C 
ATOM     21  O   THR A   3      16.172  38.984  79.375  0.00  0.00    -0.286 OA
ENDBRANCH  19  20
BRANCH  19  22
ATOM     22  CB  THR A   3      19.115  38.191  79.580  0.00  0.00    +0.136 C 
ATOM     23  CG2 THR A   3      19.645  39.372  80.393  0.00  0.00    +0.034 C 
BRANCH  22  24
ATOM     24  OG1 THR A   3      20.150  37.203  79.474  0.00  0.00    -0.382 OA
ATOM     25  HG1 THR A   3      20.400  36.890  80.379  0.00  0.00    +0.210 HD
ENDBRANCH  22  24
ENDBRANCH  19  22
ENDBRANCH  17  19
ENDBRANCH   1  15
BRANCH   1  26
ATOM     26  CB  VAL A   2      17.050  33.322  79.471  0.00  0.00    +0.027 C 
ATOM     27  CG2 VAL A   2      17.236  33.113  80.970  0.00  0.00    +0.002 C 
ATOM     28  CG1 VAL A   2      16.604  32.023  78.800  0.00  0.00    +0.002 C 
ENDBRANCH   1  26
TORSDOF 11
REMARK  Name = ../refined-set-2016/3muz/3muz_pocket.pdb
REMARK  190 active torsions:
REMARK  status: ('A' for Active; 'I' for Inactive)
REMARK    1  A    between atoms: _1  and  _3
REMARK    2  A    between atoms: _3  and  _4
REMARK    3  A    between atoms: _3  and  _6
REMARK    4  A    between atoms: _6  and  _7
REMARK    5  A    between atoms: _12  and  _13
REMARK    6  A    between atoms: _15  and  _17
REMARK    7  A    between atoms: _17  and  _18
REMARK    8  A    between atoms: _17  and  _20
REMARK    9  A    between atoms: _20  and  _21
REMARK   10  A    between atoms: _26  and  _28
REMARK   11  A    between atoms: _28  and  _29
REMARK   12  A    between atoms: _28  and  _31
REMARK   13  A    between atoms: _34  and  _36
REMARK   14  A    between atoms: _36  and  _37
REMARK   15  A    between atoms: _36  and  _39
REMARK   16  A    between atoms: _39  and  _40
REMARK   17  A    between atoms: _43  and  _45
REMARK   18  A    between atoms: _45  and  _46
REMARK   19  A    between atoms: _45  and  _48
REMARK   20  A    between atoms: _48  and  _49
REMARK   21  A    between atoms: _52  and  _54
REMARK   22  A    between atoms: _54  and  _55
REMARK   23  A    between atoms: _54  and  _57
REMARK   24  A    between atoms: _57  and  _58
REMARK   25  A    between atoms: _58  and  _59
REMARK   26  A    between atoms: _64  and  _66
REMARK   27  A    between atoms: _66  and  _67
REMARK   28  A    between atoms: _66  and  _69
REMARK   29  A    between atoms: _69  and  _70
REMARK   30  A    between atoms: _73  and  _75
REMARK   31  A    between atoms: _75  and  _76
REMARK   32  A    between atoms: _75  and  _78
REMARK   33  A    between atoms: _78  and  _79
REMARK   34  A    between atoms: _79  and  _80
REMARK   35  A    between atoms: _82  and  _84
REMARK   36  A    between atoms: _84  and  _85
REMARK   37  A    between atoms: _84  and  _87
REMARK   38  A    between atoms: _87  and  _88
REMARK   39  A    between atoms: _93  and  _95
REMARK   40  A    between atoms: _95  and  _96
REMARK   41  A    between atoms: _95  and  _98
REMARK   42  A    between atoms: _98  and  _99
REMARK   43  A    between atoms: _104  and  _106
REMARK   44  A    between atoms: _106  and  _107
REMARK   45  A    between atoms: _106  and  _109
REMARK   46  A    between atoms: _109  and  _110
REMARK   47  A    between atoms: _110  and  _111
REMARK   48  A    between atoms: _111  and  _112
REMARK   49  A    between atoms: _121  and  _123
REMARK   50  A    between atoms: _123  and  _124
REMARK   51  A    between atoms: _123  and  _126
REMARK   52  A    between atoms: _126  and  _127
REMARK   53  A    between atoms: _132  and  _134
REMARK   54  A    between atoms: _134  and  _135
REMARK   55  A    between atoms: _134  and  _137
REMARK   56  A    between atoms: _137  and  _138
REMARK   57  A    between atoms: _138  and  _139
REMARK   58  A    between atoms: _139  and  _141
REMARK   59  A    between atoms: _141  and  MG_450
REMARK   60  A    between atoms: _142  and  _144
REMARK   61  A    between atoms: _144  and  _145
REMARK   62  A    between atoms: _144  and  _147
REMARK   63  A    between atoms: _147  and  _148
REMARK   64  A    between atoms: _153  and  _155
REMARK   65  A    between atoms: _155  and  _156
REMARK   66  A    between atoms: _155  and  _158
REMARK   67  A    between atoms: _158  and  _159
REMARK   68  A    between atoms: _159  and  _160
REMARK   69  A    between atoms: _162  and  _164
REMARK   70  A    between atoms: _164  and  _165
REMARK   71  A    between atoms: _164  and  _167
REMARK   72  A    between atoms: _167  and  _168
REMARK   73  A    between atoms: _173  and  _175
REMARK   74  A    between atoms: _175  and  _176
REMARK   75  A    between atoms: _175  and  _178
REMARK   76  A    between atoms: _178  and  _179
REMARK   77  A    between atoms: _179  and  _180
REMARK   78  A    between atoms: _180  and  _181
REMARK   79  A    between atoms: _181  and  MG_450
REMARK   80  A    between atoms: _183  and  _185
REMARK   81  A    between atoms: _185  and  _186
REMARK   82  A    between atoms: _185  and  _188
REMARK   83  A    between atoms: _188  and  _189
REMARK   84  A    between atoms: _189  and  _190
REMARK   85  A    between atoms: _193  and  _195
REMARK   86  A    between atoms: _195  and  _196
REMARK   87  A    between atoms: _195  and  _198
REMARK   88  A    between atoms: _198  and  _199
REMARK   89  A    between atoms: _199  and  _200
REMARK   90  A    between atoms: _202  and  _204
REMARK   91  A    between atoms: _204  and  _205
REMARK   92  A    between atoms: _204  and  _207
REMARK   93  A    between atoms: _207  and  _208
REMARK   94  A    between atoms: _213  and  _214
REMARK   95  A    between atoms: _216  and  _218
REMARK   96  A    between atoms: _218  and  _219
REMARK   97  A    between atoms: _218  and  _221
REMARK   98  A    between atoms: _221  and  _222
REMARK   99  A    between atoms: _222  and  _223
REMARK  100  A    between atoms: _223  and  _224
REMARK  101  A    between atoms: _224  and  _225
REMARK  102  A    between atoms: _229  and  _231
REMARK  103  A    between atoms: _231  and  _232
REMARK  104  A    between atoms: _231  and  _234
REMARK  105  A    between atoms: _236  and  _238
REMARK  106  A    between atoms: _238  and  _239
REMARK  107  A    between atoms: _238  and  _241
REMARK  108  A    between atoms: _241  and  _242
REMARK  109  A    between atoms: _242  and  _243
REMARK  110  A    between atoms: _246  and  _248
REMARK  111  A    between atoms: _248  and  _249
REMARK  112  A    between atoms: _248  and  _251
REMARK  113  A    between atoms: _251  and  _252
REMARK  114  A    between atoms: _257  and  _259
REMARK  115  A    between atoms: _259  and  _260
REMARK  116  A    between atoms: _263  and  _265
REMARK  117  A    between atoms: _265  and  _266
REMARK  118  A    between atoms: _265  and  _268
REMARK  119  A    between atoms: _268  and  _269
REMARK  120  A    between atoms: _269  and  _270
REMARK  121  A    between atoms: _272  and  _274
REMARK  122  A    between atoms: _274  and  _275
REMARK  123  A    between atoms: _274  and  _277
REMARK  124  A    between atoms: _277  and  _278
REMARK  125  A    between atoms: _288  and  _290
REMARK  126  A    between atoms: _290  and  _291
REMARK  127  A    between atoms: _290  and  _293
REMARK  128  A    between atoms: _293  and  _294
REMARK  129  A    between atoms: _297  and  _299
REMARK  130  A    between atoms: _299  and  _300
REMARK  131  A    between atoms: _299  and  _302
REMARK  132  A    between atoms: _302  and  _303
REMARK  133  A    between atoms: _303  and  _304
REMARK  134  A    between atoms: _309  and  _311
REMARK  135  A    between atoms: _311  and  _312
REMARK  136  A    between atoms: _311  and  _314
REMARK  137  A    between atoms: _314  and  _315
REMARK  138  A    between atoms: _318  and  _320
REMARK  139  A    between atoms: _320  and  _321
REMARK  140  A    between atoms: _320  and  _323
REMARK  141  A    between atoms: _323  and  _324
REMARK  142  A    between atoms: _324  and  _325
REMARK  143  A    between atoms: _330  and  _332
REMARK  144  A    between atoms: _332  and  _333
REMARK  145  A    between atoms: _332  and  _335
REMARK  146  A    between atoms: _335  and  _336
REMARK  147  A    between atoms: _342  and  _344
REMARK  148  A    between atoms: _344  and  _345
REMARK  149  A    between atoms: _344  and  _347
REMARK  150  A    between atoms: _349  and  _351
REMARK  151  A    between atoms: _351  and  _352
REMARK  152  A    between atoms: _351  and  _354
REMARK  153  A    between atoms: _354  and  _355
REMARK  154  A    between atoms: _355  and  _356
REMARK  155  A    between atoms: _358  and  _360
REMARK  156  A    between atoms: _360  and  _361
REMARK  157  A    between atoms: _360  and  _363
REMARK  158  A    between atoms: _363  and  _364
REMARK  159  A    between atoms: _369  and  _371
REMARK  160  A    between atoms: _371  and  _372
REMARK  161  A    between atoms: _374  and  _376
REMARK  162  A    between atoms: _376  and  _377
REMARK  163  A    between atoms: _376  and  _379
REMARK  164  A    between atoms: _382  and  _384
REMARK  165  A    between atoms: _384  and  _385
REMARK  166  A    between atoms: _384  and  _387
REMARK  167  A    between atoms: _387  and  _388
REMARK  168  A    between atoms: _391  and  _393
REMARK  169  A    between atoms: _393  and  _394
REMARK  170  A    between atoms: _393  and  _396
REMARK  171  A    between atoms: _396  and  _397
REMARK  172  A    between atoms: _399  and  _401
REMARK  173  A    between atoms: _401  and  _402
REMARK  174  A    between atoms: _401  and  _404
REMARK  175  A    between atoms: _404  and  _405
REMARK  176  A    between atoms: _415  and  _417
REMARK  177  A    between atoms: _417  and  _418
REMARK  178  A    between atoms: _417  and  _420
REMARK  179  A    between atoms: _420  and  _421
REMARK  180  A    between atoms: _423  and  _425
REMARK  181  A    between atoms: _425  and  _426
REMARK  182  A    between atoms: _425  and  _428
REMARK  183  A    between atoms: _428  and  _429
REMARK  184  A    between atoms: _429  and  _430
REMARK  185  A    between atoms: _433  and  _435
REMARK  186  A    between atoms: _435  and  _436
REMARK  187  A    between atoms: _435  and  _438
REMARK  188  A    between atoms: _438  and  _439
REMARK  189  A    between atoms: _439  and  _440
REMARK  190  A    between atoms: _440  and  _441
REMARK                            x       y       z     vdW  Elec       q    Type
REMARK                         _______ _______ _______ _____ _____    ______ ____
ROOT
ATOM      1  C   GLN A   2       9.215  35.038  77.953  0.00  0.00    +0.241 C 
ATOM      2  O   GLN A   2       9.438  36.205  77.633  0.00  0.00    -0.273 OA
ATOM      3  N   ASP A   3       9.633  33.996  77.241  0.00  0.00    -0.297 N 
ATOM      4  H   ASP A   3       9.412  33.037  77.577  0.00  0.00    +0.150 HD
ENDROOT
BRANCH   3   5
ATOM      5  CA  ASP A   3      10.391  34.151  76.005  0.00  0.00    +0.160 C 
BRANCH   5   6
ATOM      6  C   ASP A   3       9.480  34.674  74.892  0.00  0.00    +0.241 C 
ATOM      7  N   MET A   4       9.355  35.994  74.817  0.00  0.00    -0.298 N 
ATOM      8  H   MET A   4       9.878  36.593  75.487  0.00  0.00    +0.150 HD
ATOM      9  O   ASP A   3       8.906  33.908  74.118  0.00  0.00    -0.273 OA
BRANCH   7  10
ATOM     10  CA  MET A   4       8.502  36.621  73.817  0.00  0.00    +0.138 C 
BRANCH  10  11
ATOM     11  C   MET A   4       8.808  38.108  73.771  0.00  0.00    +0.227 C 
ATOM     12  O   MET A   4       9.597  38.608  74.575  0.00  0.00    -0.286 OA
ENDBRANCH  10  11
BRANCH  10  13
ATOM     13  CB  MET A   4       7.033  36.431  74.197  0.00  0.00    +0.039 C 
BRANCH  13  14
ATOM     14  CG  MET A   4       6.672  37.035  75.552  0.00  0.00    +0.060 C 
BRANCH  14  15
ATOM     15  SD  MET A   4       4.961  36.698  76.046  0.00  0.00    -0.139 S 
ATOM     16  CE  MET A   4       4.647  38.025  77.192  0.00  0.00    +0.069 C 
ENDBRANCH  14  15
ENDBRANCH  13  14
ENDBRANCH  10  13
ENDBRANCH   7  10
ENDBRANCH   5   6
BRANCH   5  17
ATOM     17  CB  ASP A   3      11.005  32.807  75.609  0.00  0.00    +0.143 C 
BRANCH  17  18
ATOM     18  CG  ASP A   3      11.675  32.846  74.255  0.00  0.00    +0.367 C 
ATOM     19  OD2 ASP A   3      11.986  33.952  73.766  0.00  0.00    -0.246 OA
ATOM     20  OD1 ASP A   3      11.904  31.765  73.682  0.00  0.00    -0.246 OA
ENDBRANCH  17  18
ENDBRANCH   5  17
ENDBRANCH   3   5
BRANCH   1  21
ATOM     21  CA  GLN A   2       8.417  34.713  79.212  0.00  0.00    +0.149 C 
BRANCH  21  24
ATOM     22  C   ASP A   1       9.863  35.806  80.849  0.00  0.00    +0.239 C 
ATOM     23  O   ASP A   1      10.832  35.110  80.536  0.00  0.00    -0.274 OA
ATOM     24  N   GLN A   2       8.669  35.687  80.272  0.00  0.00    -0.297 N 
ATOM     25  H   GLN A   2       7.893  36.305  80.585  0.00  0.00    +0.150 HD
BRANCH  22  26
ATOM     26  CA  ASP A   1       9.995  36.880  81.930  0.00  0.00    +0.156 C 
BRANCH  26  27
ATOM     27  N   ASP A   1       8.819  36.993  82.790  0.00  0.00    -0.238 NA
ATOM     28  H   ASP A   1       8.684  36.308  83.561  0.00  0.00    +0.142 HD
ENDBRANCH  26  27
BRANCH  26  29
ATOM     29  CB  ASP A   1      11.237  36.611  82.788  0.00  0.00    +0.140 C 
BRANCH  29  30
ATOM     30  CG  ASP A   1      12.531  36.677  81.991  0.00  0.00    +0.367 C 
ATOM     31  OD2 ASP A   1      13.431  35.841  82.237  0.00  0.00    -0.246 OA
ATOM     32  OD1 ASP A   1      12.654  37.573  81.130  0.00  0.00    -0.246 OA
ENDBRANCH  29  30
ENDBRANCH  26  29
ENDBRANCH  22  26
ENDBRANCH  21  24
BRANCH  21  33
ATOM     33  CB  GLN A   2       6.927  34.670  78.844  0.00  0.00    +0.039 C 
BRANCH  33  34
ATOM     34  CG  GLN A   2       6.027  34.045  79.895  0.00  0.00    +0.087 C 
BRANCH  34  35
ATOM     35  CD  GLN A   2       5.555  35.031  80.947  0.00  0.00    +0.219 C 
ATOM     36  NE2 GLN A   2       4.629  34.588  81.788  0.00  0.00    -0.329 N 
ATOM     37 HE21 GLN A   2       4.265  35.212  82.536  0.00  0.00    +0.145 HD
ATOM     38 HE22 GLN A   2       4.267  33.617  81.699  0.00  0.00    +0.145 HD
ATOM     39  OE1 GLN A   2       6.018  36.174  81.009  0.00  0.00    -0.275 OA
ENDBRANCH  34  35
ENDBRANCH  33  34
ENDBRANCH  21  33
ENDBRANCH   1  21
TORSDOF 18
REMARK  Name = ../refined-set-2016/3muz/3muz_pocket.pdb
REMARK  190 active torsions:
REMARK  status: ('A' for Active; 'I' for Inactive)
REMARK    1  A    between atoms: _1  and  _3
REMARK    2  A    between atoms: _3  and  _4
REMARK    3  A    between atoms: _3  and  _6
REMARK    4  A    between atoms: _6  and  _7
REMARK    5  A    between atoms: _12  and  _13
REMARK    6  A    between atoms: _15  and  _17
REMARK    7  A    between atoms: _17  and  _18
REMARK    8  A    between atoms: _17  and  _20
REMARK    9  A    between atoms: _20  and  _21
REMARK   10  A    between atoms: _26  and  _28
REMARK   11  A    between atoms: _28  and  _29
REMARK   12  A    between atoms: _28  and  _31
REMARK   13  A    between atoms: _34  and  _36
REMARK   14  A    between atoms: _36  and  _37
REMARK   15  A    between atoms: _36  and  _39
REMARK   16  A    between atoms: _39  and  _40
REMARK   17  A    between atoms: _43  and  _45
REMARK   18  A    between atoms: _45  and  _46
REMARK   19  A    between atoms: _45  and  _48
REMARK   20  A    between atoms: _48  and  _49
REMARK   21  A    between atoms: _52  and  _54
REMARK   22  A    between atoms: _54  and  _55
REMARK   23  A    between atoms: _54  and  _57
REMARK   24  A    between atoms: _57  and  _58
REMARK   25  A    between atoms: _58  and  _59
REMARK   26  A    between atoms: _64  and  _66
REMARK   27  A    between atoms: _66  and  _67
REMARK   28  A    between atoms: _66  and  _69
REMARK   29  A    between atoms: _69  and  _70
REMARK   30  A    between atoms: _73  and  _75
REMARK   31  A    between atoms: _75  and  _76
REMARK   32  A    between atoms: _75  and  _78
REMARK   33  A    between atoms: _78  and  _79
REMARK   34  A    between atoms: _79  and  _80
REMARK   35  A    between atoms: _82  and  _84
REMARK   36  A    between atoms: _84  and  _85
REMARK   37  A    between atoms: _84  and  _87
REMARK   38  A    between atoms: _87  and  _88
REMARK   39  A    between atoms: _93  and  _95
REMARK   40  A    between atoms: _95  and  _96
REMARK   41  A    between atoms: _95  and  _98
REMARK   42  A    between atoms: _98  and  _99
REMARK   43  A    between atoms: _104  and  _106
REMARK   44  A    between atoms: _106  and  _107
REMARK   45  A    between atoms: _106  and  _109
REMARK   46  A    between atoms: _109  and  _110
REMARK   47  A    between atoms: _110  and  _111
REMARK   48  A    between atoms: _111  and  _112
REMARK   49  A    between atoms: _121  and  _123
REMARK   50  A    between atoms: _123  and  _124
REMARK   51  A    between atoms: _123  and  _126
REMARK   52  A    between atoms: _126  and  _127
REMARK   53  A    between atoms: _132  and  _134
REMARK   54  A    between atoms: _134  and  _135
REMARK   55  A    between atoms: _134  and  _137
REMARK   56  A    between atoms: _137  and  _138
REMARK   57  A    between atoms: _138  and  _139
REMARK   58  A    between atoms: _139  and  _141
REMARK   59  A    between atoms: _141  and  MG_450
REMARK   60  A    between atoms: _142  and  _144
REMARK   61  A    between atoms: _144  and  _145
REMARK   62  A    between atoms: _144  and  _147
REMARK   63  A    between atoms: _147  and  _148
REMARK   64  A    between atoms: _153  and  _155
REMARK   65  A    between atoms: _155  and  _156
REMARK   66  A    between atoms: _155  and  _158
REMARK   67  A    between atoms: _158  and  _159
REMARK   68  A    between atoms: _159  and  _160
REMARK   69  A    between atoms: _162  and  _164
REMARK   70  A    between atoms: _164  and  _165
REMARK   71  A    between atoms: _164  and  _167
REMARK   72  A    between atoms: _167  and  _168
REMARK   73  A    between atoms: _173  and  _175
REMARK   74  A    between atoms: _175  and  _176
REMARK   75  A    between atoms: _175  and  _178
REMARK   76  A    between atoms: _178  and  _179
REMARK   77  A    between atoms: _179  and  _180
REMARK   78  A    between atoms: _180  and  _181
REMARK   79  A    between atoms: _181  and  MG_450
REMARK   80  A    between atoms: _183  and  _185
REMARK   81  A    between atoms: _185  and  _186
REMARK   82  A    between atoms: _185  and  _188
REMARK   83  A    between atoms: _188  and  _189
REMARK   84  A    between atoms: _189  and  _190
REMARK   85  A    between atoms: _193  and  _195
REMARK   86  A    between atoms: _195  and  _196
REMARK   87  A    between atoms: _195  and  _198
REMARK   88  A    between atoms: _198  and  _199
REMARK   89  A    between atoms: _199  and  _200
REMARK   90  A    between atoms: _202  and  _204
REMARK   91  A    between atoms: _204  and  _205
REMARK   92  A    between atoms: _204  and  _207
REMARK   93  A    between atoms: _207  and  _208
REMARK   94  A    between atoms: _213  and  _214
REMARK   95  A    between atoms: _216  and  _218
REMARK   96  A    between atoms: _218  and  _219
REMARK   97  A    between atoms: _218  and  _221
REMARK   98  A    between atoms: _221  and  _222
REMARK   99  A    between atoms: _222  and  _223
REMARK  100  A    between atoms: _223  and  _224
REMARK  101  A    between atoms: _224  and  _225
REMARK  102  A    between atoms: _229  and  _231
REMARK  103  A    between atoms: _231  and  _232
REMARK  104  A    between atoms: _231  and  _234
REMARK  105  A    between atoms: _236  and  _238
REMARK  106  A    between atoms: _238  and  _239
REMARK  107  A    between atoms: _238  and  _241
REMARK  108  A    between atoms: _241  and  _242
REMARK  109  A    between atoms: _242  and  _243
REMARK  110  A    between atoms: _246  and  _248
REMARK  111  A    between atoms: _248  and  _249
REMARK  112  A    between atoms: _248  and  _251
REMARK  113  A    between atoms: _251  and  _252
REMARK  114  A    between atoms: _257  and  _259
REMARK  115  A    between atoms: _259  and  _260
REMARK  116  A    between atoms: _263  and  _265
REMARK  117  A    between atoms: _265  and  _266
REMARK  118  A    between atoms: _265  and  _268
REMARK  119  A    between atoms: _268  and  _269
REMARK  120  A    between atoms: _269  and  _270
REMARK  121  A    between atoms: _272  and  _274
REMARK  122  A    between atoms: _274  and  _275
REMARK  123  A    between atoms: _274  and  _277
REMARK  124  A    between atoms: _277  and  _278
REMARK  125  A    between atoms: _288  and  _290
REMARK  126  A    between atoms: _290  and  _291
REMARK  127  A    between atoms: _290  and  _293
REMARK  128  A    between atoms: _293  and  _294
REMARK  129  A    between atoms: _297  and  _299
REMARK  130  A    between atoms: _299  and  _300
REMARK  131  A    between atoms: _299  and  _302
REMARK  132  A    between atoms: _302  and  _303
REMARK  133  A    between atoms: _303  and  _304
REMARK  134  A    between atoms: _309  and  _311
REMARK  135  A    between atoms: _311  and  _312
REMARK  136  A    between atoms: _311  and  _314
REMARK  137  A    between atoms: _314  and  _315
REMARK  138  A    between atoms: _318  and  _320
REMARK  139  A    between atoms: _320  and  _321
REMARK  140  A    between atoms: _320  and  _323
REMARK  141  A    between atoms: _323  and  _324
REMARK  142  A    between atoms: _324  and  _325
REMARK  143  A    between atoms: _330  and  _332
REMARK  144  A    between atoms: _332  and  _333
REMARK  145  A    between atoms: _332  and  _335
REMARK  146  A    between atoms: _335  and  _336
REMARK  147  A    between atoms: _342  and  _344
REMARK  148  A    between atoms: _344  and  _345
REMARK  149  A    between atoms: _344  and  _347
REMARK  150  A    between atoms: _349  and  _351
REMARK  151  A    between atoms: _351  and  _352
REMARK  152  A    between atoms: _351  and  _354
REMARK  153  A    between atoms: _354  and  _355
REMARK  154  A    between atoms: _355  and  _356
REMARK  155  A    between atoms: _358  and  _360
REMARK  156  A    between atoms: _360  and  _361
REMARK  157  A    between atoms: _360  and  _363
REMARK  158  A    between atoms: _363  and  _364
REMARK  159  A    between atoms: _369  and  _371
REMARK  160  A    between atoms: _371  and  _372
REMARK  161  A    between atoms: _374  and  _376
REMARK  162  A    between atoms: _376  and  _377
REMARK  163  A    between atoms: _376  and  _379
REMARK  164  A    between atoms: _382  and  _384
REMARK  165  A    between atoms: _384  and  _385
REMARK  166  A    between atoms: _384  and  _387
REMARK  167  A    between atoms: _387  and  _388
REMARK  168  A    between atoms: _391  and  _393
REMARK  169  A    between atoms: _393  and  _394
REMARK  170  A    between atoms: _393  and  _396
REMARK  171  A    between atoms: _396  and  _397
REMARK  172  A    between atoms: _399  and  _401
REMARK  173  A    between atoms: _401  and  _402
REMARK  174  A    between atoms: _401  and  _404
REMARK  175  A    between atoms: _404  and  _405
REMARK  176  A    between atoms: _415  and  _417
REMARK  177  A    between atoms: _417  and  _418
REMARK  178  A    between atoms: _417  and  _420
REMARK  179  A    between atoms: _420  and  _421
REMARK  180  A    between atoms: _423  and  _425
REMARK  181  A    between atoms: _425  and  _426
REMARK  182  A    between atoms: _425  and  _428
REMARK  183  A    between atoms: _428  and  _429
REMARK  184  A    between atoms: _429  and  _430
REMARK  185  A    between atoms: _433  and  _435
REMARK  186  A    between atoms: _435  and  _436
REMARK  187  A    between atoms: _435  and  _438
REMARK  188  A    between atoms: _438  and  _439
REMARK  189  A    between atoms: _439  and  _440
REMARK  190  A    between atoms: _440  and  _441
REMARK                            x       y       z     vdW  Elec       q    Type
REMARK                         _______ _______ _______ _____ _____    ______ ____
ROOT
ATOM      1  CB  ASN A   1       3.422  25.852  73.230  0.00  0.00    +0.110 C 
ENDROOT
BRANCH   1   2
ATOM      2  CG  ASN A   1       3.773  24.910  74.365  0.00  0.00    +0.221 C 
ATOM      3  OD1 ASN A   1       3.485  25.195  75.524  0.00  0.00    -0.275 OA
ATOM      4  ND2 ASN A   1       4.381  23.771  74.035  0.00  0.00    -0.329 N 
ATOM      5 HD21 ASN A   1       4.630  23.082  74.773  0.00  0.00    +0.145 HD
ATOM      6 HD22 ASN A   1       4.606  23.571  73.040  0.00  0.00    +0.145 HD
ENDBRANCH   1   2
BRANCH   1   7
ATOM      7  CA  ASN A   1       2.002  25.634  72.705  0.00  0.00    +0.142 C 
BRANCH   7   8
ATOM      8  N   ASN A   1       1.956  24.461  71.851  0.00  0.00    -0.239 NA
ATOM      9  H   ASN A   1       2.834  24.135  71.398  0.00  0.00    +0.142 HD
ENDBRANCH   7   8
BRANCH   7  10
ATOM     10  C   ASN A   1       1.610  26.784  71.791  0.00  0.00    +0.225 C 
ATOM     11  O   ASN A   1       1.994  26.805  70.621  0.00  0.00    -0.287 OA
ENDBRANCH   7  10
ENDBRANCH   1   7
TORSDOF 4
REMARK  Name = ../refined-set-2016/3muz/3muz_pocket.pdb
REMARK  190 active torsions:
REMARK  status: ('A' for Active; 'I' for Inactive)
REMARK    1  A    between atoms: _1  and  _3
REMARK    2  A    between atoms: _3  and  _4
REMARK    3  A    between atoms: _3  and  _6
REMARK    4  A    between atoms: _6  and  _7
REMARK    5  A    between atoms: _12  and  _13
REMARK    6  A    between atoms: _15  and  _17
REMARK    7  A    between atoms: _17  and  _18
REMARK    8  A    between atoms: _17  and  _20
REMARK    9  A    between atoms: _20  and  _21
REMARK   10  A    between atoms: _26  and  _28
REMARK   11  A    between atoms: _28  and  _29
REMARK   12  A    between atoms: _28  and  _31
REMARK   13  A    between atoms: _34  and  _36
REMARK   14  A    between atoms: _36  and  _37
REMARK   15  A    between atoms: _36  and  _39
REMARK   16  A    between atoms: _39  and  _40
REMARK   17  A    between atoms: _43  and  _45
REMARK   18  A    between atoms: _45  and  _46
REMARK   19  A    between atoms: _45  and  _48
REMARK   20  A    between atoms: _48  and  _49
REMARK   21  A    between atoms: _52  and  _54
REMARK   22  A    between atoms: _54  and  _55
REMARK   23  A    between atoms: _54  and  _57
REMARK   24  A    between atoms: _57  and  _58
REMARK   25  A    between atoms: _58  and  _59
REMARK   26  A    between atoms: _64  and  _66
REMARK   27  A    between atoms: _66  and  _67
REMARK   28  A    between atoms: _66  and  _69
REMARK   29  A    between atoms: _69  and  _70
REMARK   30  A    between atoms: _73  and  _75
REMARK   31  A    between atoms: _75  and  _76
REMARK   32  A    between atoms: _75  and  _78
REMARK   33  A    between atoms: _78  and  _79
REMARK   34  A    between atoms: _79  and  _80
REMARK   35  A    between atoms: _82  and  _84
REMARK   36  A    between atoms: _84  and  _85
REMARK   37  A    between atoms: _84  and  _87
REMARK   38  A    between atoms: _87  and  _88
REMARK   39  A    between atoms: _93  and  _95
REMARK   40  A    between atoms: _95  and  _96
REMARK   41  A    between atoms: _95  and  _98
REMARK   42  A    between atoms: _98  and  _99
REMARK   43  A    between atoms: _104  and  _106
REMARK   44  A    between atoms: _106  and  _107
REMARK   45  A    between atoms: _106  and  _109
REMARK   46  A    between atoms: _109  and  _110
REMARK   47  A    between atoms: _110  and  _111
REMARK   48  A    between atoms: _111  and  _112
REMARK   49  A    between atoms: _121  and  _123
REMARK   50  A    between atoms: _123  and  _124
REMARK   51  A    between atoms: _123  and  _126
REMARK   52  A    between atoms: _126  and  _127
REMARK   53  A    between atoms: _132  and  _134
REMARK   54  A    between atoms: _134  and  _135
REMARK   55  A    between atoms: _134  and  _137
REMARK   56  A    between atoms: _137  and  _138
REMARK   57  A    between atoms: _138  and  _139
REMARK   58  A    between atoms: _139  and  _141
REMARK   59  A    between atoms: _141  and  MG_450
REMARK   60  A    between atoms: _142  and  _144
REMARK   61  A    between atoms: _144  and  _145
REMARK   62  A    between atoms: _144  and  _147
REMARK   63  A    between atoms: _147  and  _148
REMARK   64  A    between atoms: _153  and  _155
REMARK   65  A    between atoms: _155  and  _156
REMARK   66  A    between atoms: _155  and  _158
REMARK   67  A    between atoms: _158  and  _159
REMARK   68  A    between atoms: _159  and  _160
REMARK   69  A    between atoms: _162  and  _164
REMARK   70  A    between atoms: _164  and  _165
REMARK   71  A    between atoms: _164  and  _167
REMARK   72  A    between atoms: _167  and  _168
REMARK   73  A    between atoms: _173  and  _175
REMARK   74  A    between atoms: _175  and  _176
REMARK   75  A    between atoms: _175  and  _178
REMARK   76  A    between atoms: _178  and  _179
REMARK   77  A    between atoms: _179  and  _180
REMARK   78  A    between atoms: _180  and  _181
REMARK   79  A    between atoms: _181  and  MG_450
REMARK   80  A    between atoms: _183  and  _185
REMARK   81  A    between atoms: _185  and  _186
REMARK   82  A    between atoms: _185  and  _188
REMARK   83  A    between atoms: _188  and  _189
REMARK   84  A    between atoms: _189  and  _190
REMARK   85  A    between atoms: _193  and  _195
REMARK   86  A    between atoms: _195  and  _196
REMARK   87  A    between atoms: _195  and  _198
REMARK   88  A    between atoms: _198  and  _199
REMARK   89  A    between atoms: _199  and  _200
REMARK   90  A    between atoms: _202  and  _204
REMARK   91  A    between atoms: _204  and  _205
REMARK   92  A    between atoms: _204  and  _207
REMARK   93  A    between atoms: _207  and  _208
REMARK   94  A    between atoms: _213  and  _214
REMARK   95  A    between atoms: _216  and  _218
REMARK   96  A    between atoms: _218  and  _219
REMARK   97  A    between atoms: _218  and  _221
REMARK   98  A    between atoms: _221  and  _222
REMARK   99  A    between atoms: _222  and  _223
REMARK  100  A    between atoms: _223  and  _224
REMARK  101  A    between atoms: _224  and  _225
REMARK  102  A    between atoms: _229  and  _231
REMARK  103  A    between atoms: _231  and  _232
REMARK  104  A    between atoms: _231  and  _234
REMARK  105  A    between atoms: _236  and  _238
REMARK  106  A    between atoms: _238  and  _239
REMARK  107  A    between atoms: _238  and  _241
REMARK  108  A    between atoms: _241  and  _242
REMARK  109  A    between atoms: _242  and  _243
REMARK  110  A    between atoms: _246  and  _248
REMARK  111  A    between atoms: _248  and  _249
REMARK  112  A    between atoms: _248  and  _251
REMARK  113  A    between atoms: _251  and  _252
REMARK  114  A    between atoms: _257  and  _259
REMARK  115  A    between atoms: _259  and  _260
REMARK  116  A    between atoms: _263  and  _265
REMARK  117  A    between atoms: _265  and  _266
REMARK  118  A    between atoms: _265  and  _268
REMARK  119  A    between atoms: _268  and  _269
REMARK  120  A    between atoms: _269  and  _270
REMARK  121  A    between atoms: _272  and  _274
REMARK  122  A    between atoms: _274  and  _275
REMARK  123  A    between atoms: _274  and  _277
REMARK  124  A    between atoms: _277  and  _278
REMARK  125  A    between atoms: _288  and  _290
REMARK  126  A    between atoms: _290  and  _291
REMARK  127  A    between atoms: _290  and  _293
REMARK  128  A    between atoms: _293  and  _294
REMARK  129  A    between atoms: _297  and  _299
REMARK  130  A    between atoms: _299  and  _300
REMARK  131  A    between atoms: _299  and  _302
REMARK  132  A    between atoms: _302  and  _303
REMARK  133  A    between atoms: _303  and  _304
REMARK  134  A    between atoms: _309  and  _311
REMARK  135  A    between atoms: _311  and  _312
REMARK  136  A    between atoms: _311  and  _314
REMARK  137  A    between atoms: _314  and  _315
REMARK  138  A    between atoms: _318  and  _320
REMARK  139  A    between atoms: _320  and  _321
REMARK  140  A    between atoms: _320  and  _323
REMARK  141  A    between atoms: _323  and  _324
REMARK  142  A    between atoms: _324  and  _325
REMARK  143  A    between atoms: _330  and  _332
REMARK  144  A    between atoms: _332  and  _333
REMARK  145  A    between atoms: _332  and  _335
REMARK  146  A    between atoms: _335  and  _336
REMARK  147  A    between atoms: _342  and  _344
REMARK  148  A    between atoms: _344  and  _345
REMARK  149  A    between atoms: _344  and  _347
REMARK  150  A    between atoms: _349  and  _351
REMARK  151  A    between atoms: _351  and  _352
REMARK  152  A    between atoms: _351  and  _354
REMARK  153  A    between atoms: _354  and  _355
REMARK  154  A    between atoms: _355  and  _356
REMARK  155  A    between atoms: _358  and  _360
REMARK  156  A    between atoms: _360  and  _361
REMARK  157  A    between atoms: _360  and  _363
REMARK  158  A    between atoms: _363  and  _364
REMARK  159  A    between atoms: _369  and  _371
REMARK  160  A    between atoms: _371  and  _372
REMARK  161  A    between atoms: _374  and  _376
REMARK  162  A    between atoms: _376  and  _377
REMARK  163  A    between atoms: _376  and  _379
REMARK  164  A    between atoms: _382  and  _384
REMARK  165  A    between atoms: _384  and  _385
REMARK  166  A    between atoms: _384  and  _387
REMARK  167  A    between atoms: _387  and  _388
REMARK  168  A    between atoms: _391  and  _393
REMARK  169  A    between atoms: _393  and  _394
REMARK  170  A    between atoms: _393  and  _396
REMARK  171  A    between atoms: _396  and  _397
REMARK  172  A    between atoms: _399  and  _401
REMARK  173  A    between atoms: _401  and  _402
REMARK  174  A    between atoms: _401  and  _404
REMARK  175  A    between atoms: _404  and  _405
REMARK  176  A    between atoms: _415  and  _417
REMARK  177  A    between atoms: _417  and  _418
REMARK  178  A    between atoms: _417  and  _420
REMARK  179  A    between atoms: _420  and  _421
REMARK  180  A    between atoms: _423  and  _425
REMARK  181  A    between atoms: _425  and  _426
REMARK  182  A    between atoms: _425  and  _428
REMARK  183  A    between atoms: _428  and  _429
REMARK  184  A    between atoms: _429  and  _430
REMARK  185  A    between atoms: _433  and  _435
REMARK  186  A    between atoms: _435  and  _436
REMARK  187  A    between atoms: _435  and  _438
REMARK  188  A    between atoms: _438  and  _439
REMARK  189  A    between atoms: _439  and  _440
REMARK  190  A    between atoms: _440  and  _441
REMARK                            x       y       z     vdW  Elec       q    Type
REMARK                         _______ _______ _______ _____ _____    ______ ____
ROOT
ATOM      1  CB  HIS A   1       2.710  33.062  72.037  0.00  0.00    +0.072 C 
ENDROOT
BRANCH   1   2
ATOM      2  CG  HIS A   1       3.727  32.908  73.122  0.00  0.00    +0.082 A 
ATOM      3  ND1 HIS A   1       3.679  33.634  74.292  0.00  0.00    -0.227 NA
ATOM      4  CE1 HIS A   1       4.697  33.289  75.060  0.00  0.00    +0.199 A 
ATOM      5  NE2 HIS A   1       5.402  32.366  74.430  0.00  0.00    -0.221 NA
ATOM      6  CD2 HIS A   1       4.817  32.110  73.215  0.00  0.00    +0.115 A 
ENDBRANCH   1   2
BRANCH   1   7
ATOM      7  CA  HIS A   1       1.350  32.441  72.363  0.00  0.00    +0.139 C 
BRANCH   7   8
ATOM      8  N   HIS A   1       1.243  31.112  71.775  0.00  0.00    -0.239 NA
ATOM      9  H   HIS A   1       1.810  30.889  70.932  0.00  0.00    +0.142 HD
ENDBRANCH   7   8
BRANCH   7  10
ATOM     10  C   HIS A   1       0.271  33.291  71.705  0.00  0.00    +0.224 C 
ATOM     11  O   HIS A   1      -0.266  32.918  70.664  0.00  0.00    -0.287 OA
ENDBRANCH   7  10
ENDBRANCH   1   7
TORSDOF 4
REMARK  Name = ../refined-set-2016/3muz/3muz_pocket.pdb
REMARK  190 active torsions:
REMARK  status: ('A' for Active; 'I' for Inactive)
REMARK    1  A    between atoms: _1  and  _3
REMARK    2  A    between atoms: _3  and  _4
REMARK    3  A    between atoms: _3  and  _6
REMARK    4  A    between atoms: _6  and  _7
REMARK    5  A    between atoms: _12  and  _13
REMARK    6  A    between atoms: _15  and  _17
REMARK    7  A    between atoms: _17  and  _18
REMARK    8  A    between atoms: _17  and  _20
REMARK    9  A    between atoms: _20  and  _21
REMARK   10  A    between atoms: _26  and  _28
REMARK   11  A    between atoms: _28  and  _29
REMARK   12  A    between atoms: _28  and  _31
REMARK   13  A    between atoms: _34  and  _36
REMARK   14  A    between atoms: _36  and  _37
REMARK   15  A    between atoms: _36  and  _39
REMARK   16  A    between atoms: _39  and  _40
REMARK   17  A    between atoms: _43  and  _45
REMARK   18  A    between atoms: _45  and  _46
REMARK   19  A    between atoms: _45  and  _48
REMARK   20  A    between atoms: _48  and  _49
REMARK   21  A    between atoms: _52  and  _54
REMARK   22  A    between atoms: _54  and  _55
REMARK   23  A    between atoms: _54  and  _57
REMARK   24  A    between atoms: _57  and  _58
REMARK   25  A    between atoms: _58  and  _59
REMARK   26  A    between atoms: _64  and  _66
REMARK   27  A    between atoms: _66  and  _67
REMARK   28  A    between atoms: _66  and  _69
REMARK   29  A    between atoms: _69  and  _70
REMARK   30  A    between atoms: _73  and  _75
REMARK   31  A    between atoms: _75  and  _76
REMARK   32  A    between atoms: _75  and  _78
REMARK   33  A    between atoms: _78  and  _79
REMARK   34  A    between atoms: _79  and  _80
REMARK   35  A    between atoms: _82  and  _84
REMARK   36  A    between atoms: _84  and  _85
REMARK   37  A    between atoms: _84  and  _87
REMARK   38  A    between atoms: _87  and  _88
REMARK   39  A    between atoms: _93  and  _95
REMARK   40  A    between atoms: _95  and  _96
REMARK   41  A    between atoms: _95  and  _98
REMARK   42  A    between atoms: _98  and  _99
REMARK   43  A    between atoms: _104  and  _106
REMARK   44  A    between atoms: _106  and  _107
REMARK   45  A    between atoms: _106  and  _109
REMARK   46  A    between atoms: _109  and  _110
REMARK   47  A    between atoms: _110  and  _111
REMARK   48  A    between atoms: _111  and  _112
REMARK   49  A    between atoms: _121  and  _123
REMARK   50  A    between atoms: _123  and  _124
REMARK   51  A    between atoms: _123  and  _126
REMARK   52  A    between atoms: _126  and  _127
REMARK   53  A    between atoms: _132  and  _134
REMARK   54  A    between atoms: _134  and  _135
REMARK   55  A    between atoms: _134  and  _137
REMARK   56  A    between atoms: _137  and  _138
REMARK   57  A    between atoms: _138  and  _139
REMARK   58  A    between atoms: _139  and  _141
REMARK   59  A    between atoms: _141  and  MG_450
REMARK   60  A    between atoms: _142  and  _144
REMARK   61  A    between atoms: _144  and  _145
REMARK   62  A    between atoms: _144  and  _147
REMARK   63  A    between atoms: _147  and  _148
REMARK   64  A    between atoms: _153  and  _155
REMARK   65  A    between atoms: _155  and  _156
REMARK   66  A    between atoms: _155  and  _158
REMARK   67  A    between atoms: _158  and  _159
REMARK   68  A    between atoms: _159  and  _160
REMARK   69  A    between atoms: _162  and  _164
REMARK   70  A    between atoms: _164  and  _165
REMARK   71  A    between atoms: _164  and  _167
REMARK   72  A    between atoms: _167  and  _168
REMARK   73  A    between atoms: _173  and  _175
REMARK   74  A    between atoms: _175  and  _176
REMARK   75  A    between atoms: _175  and  _178
REMARK   76  A    between atoms: _178  and  _179
REMARK   77  A    between atoms: _179  and  _180
REMARK   78  A    between atoms: _180  and  _181
REMARK   79  A    between atoms: _181  and  MG_450
REMARK   80  A    between atoms: _183  and  _185
REMARK   81  A    between atoms: _185  and  _186
REMARK   82  A    between atoms: _185  and  _188
REMARK   83  A    between atoms: _188  and  _189
REMARK   84  A    between atoms: _189  and  _190
REMARK   85  A    between atoms: _193  and  _195
REMARK   86  A    between atoms: _195  and  _196
REMARK   87  A    between atoms: _195  and  _198
REMARK   88  A    between atoms: _198  and  _199
REMARK   89  A    between atoms: _199  and  _200
REMARK   90  A    between atoms: _202  and  _204
REMARK   91  A    between atoms: _204  and  _205
REMARK   92  A    between atoms: _204  and  _207
REMARK   93  A    between atoms: _207  and  _208
REMARK   94  A    between atoms: _213  and  _214
REMARK   95  A    between atoms: _216  and  _218
REMARK   96  A    between atoms: _218  and  _219
REMARK   97  A    between atoms: _218  and  _221
REMARK   98  A    between atoms: _221  and  _222
REMARK   99  A    between atoms: _222  and  _223
REMARK  100  A    between atoms: _223  and  _224
REMARK  101  A    between atoms: _224  and  _225
REMARK  102  A    between atoms: _229  and  _231
REMARK  103  A    between atoms: _231  and  _232
REMARK  104  A    between atoms: _231  and  _234
REMARK  105  A    between atoms: _236  and  _238
REMARK  106  A    between atoms: _238  and  _239
REMARK  107  A    between atoms: _238  and  _241
REMARK  108  A    between atoms: _241  and  _242
REMARK  109  A    between atoms: _242  and  _243
REMARK  110  A    between atoms: _246  and  _248
REMARK  111  A    between atoms: _248  and  _249
REMARK  112  A    between atoms: _248  and  _251
REMARK  113  A    between atoms: _251  and  _252
REMARK  114  A    between atoms: _257  and  _259
REMARK  115  A    between atoms: _259  and  _260
REMARK  116  A    between atoms: _263  and  _265
REMARK  117  A    between atoms: _265  and  _266
REMARK  118  A    between atoms: _265  and  _268
REMARK  119  A    between atoms: _268  and  _269
REMARK  120  A    between atoms: _269  and  _270
REMARK  121  A    between atoms: _272  and  _274
REMARK  122  A    between atoms: _274  and  _275
REMARK  123  A    between atoms: _274  and  _277
REMARK  124  A    between atoms: _277  and  _278
REMARK  125  A    between atoms: _288  and  _290
REMARK  126  A    between atoms: _290  and  _291
REMARK  127  A    between atoms: _290  and  _293
REMARK  128  A    between atoms: _293  and  _294
REMARK  129  A    between atoms: _297  and  _299
REMARK  130  A    between atoms: _299  and  _300
REMARK  131  A    between atoms: _299  and  _302
REMARK  132  A    between atoms: _302  and  _303
REMARK  133  A    between atoms: _303  and  _304
REMARK  134  A    between atoms: _309  and  _311
REMARK  135  A    between atoms: _311  and  _312
REMARK  136  A    between atoms: _311  and  _314
REMARK  137  A    between atoms: _314  and  _315
REMARK  138  A    between atoms: _318  and  _320
REMARK  139  A    between atoms: _320  and  _321
REMARK  140  A    between atoms: _320  and  _323
REMARK  141  A    between atoms: _323  and  _324
REMARK  142  A    between atoms: _324  and  _325
REMARK  143  A    between atoms: _330  and  _332
REMARK  144  A    between atoms: _332  and  _333
REMARK  145  A    between atoms: _332  and  _335
REMARK  146  A    between atoms: _335  and  _336
REMARK  147  A    between atoms: _342  and  _344
REMARK  148  A    between atoms: _344  and  _345
REMARK  149  A    between atoms: _344  and  _347
REMARK  150  A    between atoms: _349  and  _351
REMARK  151  A    between atoms: _351  and  _352
REMARK  152  A    between atoms: _351  and  _354
REMARK  153  A    between atoms: _354  and  _355
REMARK  154  A    between atoms: _355  and  _356
REMARK  155  A    between atoms: _358  and  _360
REMARK  156  A    between atoms: _360  and  _361
REMARK  157  A    between atoms: _360  and  _363
REMARK  158  A    between atoms: _363  and  _364
REMARK  159  A    between atoms: _369  and  _371
REMARK  160  A    between atoms: _371  and  _372
REMARK  161  A    between atoms: _374  and  _376
REMARK  162  A    between atoms: _376  and  _377
REMARK  163  A    between atoms: _376  and  _379
REMARK  164  A    between atoms: _382  and  _384
REMARK  165  A    between atoms: _384  and  _385
REMARK  166  A    between atoms: _384  and  _387
REMARK  167  A    between atoms: _387  and  _388
REMARK  168  A    between atoms: _391  and  _393
REMARK  169  A    between atoms: _393  and  _394
REMARK  170  A    between atoms: _393  and  _396
REMARK  171  A    between atoms: _396  and  _397
REMARK  172  A    between atoms: _399  and  _401
REMARK  173  A    between atoms: _401  and  _402
REMARK  174  A    between atoms: _401  and  _404
REMARK  175  A    between atoms: _404  and  _405
REMARK  176  A    between atoms: _415  and  _417
REMARK  177  A    between atoms: _417  and  _418
REMARK  178  A    between atoms: _417  and  _420
REMARK  179  A    between atoms: _420  and  _421
REMARK  180  A    between atoms: _423  and  _425
REMARK  181  A    between atoms: _425  and  _426
REMARK  182  A    between atoms: _425  and  _428
REMARK  183  A    between atoms: _428  and  _429
REMARK  184  A    between atoms: _429  and  _430
REMARK  185  A    between atoms: _433  and  _435
REMARK  186  A    between atoms: _435  and  _436
REMARK  187  A    between atoms: _435  and  _438
REMARK  188  A    between atoms: _438  and  _439
REMARK  189  A    between atoms: _439  and  _440
REMARK  190  A    between atoms: _440  and  _441
REMARK                            x       y       z     vdW  Elec       q    Type
REMARK                         _______ _______ _______ _____ _____    ______ ____
ROOT
ATOM      1  NE  ARG A   1       2.929  24.822  79.196  0.00  0.00    -0.265 N 
ATOM      2  HE  ARG A   1       2.373  25.035  80.049  0.00  0.00    +0.259 HD
ATOM      3  CZ  ARG A   1       4.236  25.083  79.217  0.00  0.00    +0.342 C 
ATOM      4  NH2 ARG A   1       4.802  25.587  80.303  0.00  0.00    -0.292 N 
ATOM      5 HH21 ARG A   1       4.226  25.782  81.147  0.00  0.00    +0.255 HD
ATOM      6 HH22 ARG A   1       5.822  25.788  80.312  0.00  0.00    +0.255 HD
ATOM      7  NH1 ARG A   1       4.983  24.832  78.147  0.00  0.00    -0.292 N 
ATOM      8 HH11 ARG A   1       6.003  25.036  78.165  0.00  0.00    +0.255 HD
ATOM      9 HH12 ARG A   1       4.548  24.431  77.292  0.00  0.00    +0.255 HD
ENDROOT
BRANCH   1  10
ATOM     10  CD  ARG A   1       2.230  24.253  78.043  0.00  0.00    +0.174 C 
BRANCH  10  11
ATOM     11  CG  ARG A   1       0.885  24.918  77.764  0.00  0.00    +0.045 C 
BRANCH  11  12
ATOM     12  CB  ARG A   1       0.240  24.375  76.484  0.00  0.00    +0.029 C 
BRANCH  12  13
ATOM     13  CA  ARG A   1      -1.143  24.966  76.179  0.00  0.00    +0.133 C 
BRANCH  13  14
ATOM     14  N   ARG A   1      -1.637  24.499  74.894  0.00  0.00    -0.239 NA
ATOM     15  H   ARG A   1      -1.017  24.549  74.060  0.00  0.00    +0.142 HD
ENDBRANCH  13  14
BRANCH  13  16
ATOM     16  C   ARG A   1      -1.053  26.484  76.086  0.00  0.00    +0.224 C 
ATOM     17  O   ARG A   1      -0.539  27.019  75.100  0.00  0.00    -0.287 OA
ENDBRANCH  13  16
ENDBRANCH  12  13
ENDBRANCH  11  12
ENDBRANCH  10  11
ENDBRANCH   1  10
TORSDOF 6
REMARK  Name = ../refined-set-2016/3muz/3muz_pocket.pdb
REMARK  190 active torsions:
REMARK  status: ('A' for Active; 'I' for Inactive)
REMARK    1  A    between atoms: _1  and  _3
REMARK    2  A    between atoms: _3  and  _4
REMARK    3  A    between atoms: _3  and  _6
REMARK    4  A    between atoms: _6  and  _7
REMARK    5  A    between atoms: _12  and  _13
REMARK    6  A    between atoms: _15  and  _17
REMARK    7  A    between atoms: _17  and  _18
REMARK    8  A    between atoms: _17  and  _20
REMARK    9  A    between atoms: _20  and  _21
REMARK   10  A    between atoms: _26  and  _28
REMARK   11  A    between atoms: _28  and  _29
REMARK   12  A    between atoms: _28  and  _31
REMARK   13  A    between atoms: _34  and  _36
REMARK   14  A    between atoms: _36  and  _37
REMARK   15  A    between atoms: _36  and  _39
REMARK   16  A    between atoms: _39  and  _40
REMARK   17  A    between atoms: _43  and  _45
REMARK   18  A    between atoms: _45  and  _46
REMARK   19  A    between atoms: _45  and  _48
REMARK   20  A    between atoms: _48  and  _49
REMARK   21  A    between atoms: _52  and  _54
REMARK   22  A    between atoms: _54  and  _55
REMARK   23  A    between atoms: _54  and  _57
REMARK   24  A    between atoms: _57  and  _58
REMARK   25  A    between atoms: _58  and  _59
REMARK   26  A    between atoms: _64  and  _66
REMARK   27  A    between atoms: _66  and  _67
REMARK   28  A    between atoms: _66  and  _69
REMARK   29  A    between atoms: _69  and  _70
REMARK   30  A    between atoms: _73  and  _75
REMARK   31  A    between atoms: _75  and  _76
REMARK   32  A    between atoms: _75  and  _78
REMARK   33  A    between atoms: _78  and  _79
REMARK   34  A    between atoms: _79  and  _80
REMARK   35  A    between atoms: _82  and  _84
REMARK   36  A    between atoms: _84  and  _85
REMARK   37  A    between atoms: _84  and  _87
REMARK   38  A    between atoms: _87  and  _88
REMARK   39  A    between atoms: _93  and  _95
REMARK   40  A    between atoms: _95  and  _96
REMARK   41  A    between atoms: _95  and  _98
REMARK   42  A    between atoms: _98  and  _99
REMARK   43  A    between atoms: _104  and  _106
REMARK   44  A    between atoms: _106  and  _107
REMARK   45  A    between atoms: _106  and  _109
REMARK   46  A    between atoms: _109  and  _110
REMARK   47  A    between atoms: _110  and  _111
REMARK   48  A    between atoms: _111  and  _112
REMARK   49  A    between atoms: _121  and  _123
REMARK   50  A    between atoms: _123  and  _124
REMARK   51  A    between atoms: _123  and  _126
REMARK   52  A    between atoms: _126  and  _127
REMARK   53  A    between atoms: _132  and  _134
REMARK   54  A    between atoms: _134  and  _135
REMARK   55  A    between atoms: _134  and  _137
REMARK   56  A    between atoms: _137  and  _138
REMARK   57  A    between atoms: _138  and  _139
REMARK   58  A    between atoms: _139  and  _141
REMARK   59  A    between atoms: _141  and  MG_450
REMARK   60  A    between atoms: _142  and  _144
REMARK   61  A    between atoms: _144  and  _145
REMARK   62  A    between atoms: _144  and  _147
REMARK   63  A    between atoms: _147  and  _148
REMARK   64  A    between atoms: _153  and  _155
REMARK   65  A    between atoms: _155  and  _156
REMARK   66  A    between atoms: _155  and  _158
REMARK   67  A    between atoms: _158  and  _159
REMARK   68  A    between atoms: _159  and  _160
REMARK   69  A    between atoms: _162  and  _164
REMARK   70  A    between atoms: _164  and  _165
REMARK   71  A    between atoms: _164  and  _167
REMARK   72  A    between atoms: _167  and  _168
REMARK   73  A    between atoms: _173  and  _175
REMARK   74  A    between atoms: _175  and  _176
REMARK   75  A    between atoms: _175  and  _178
REMARK   76  A    between atoms: _178  and  _179
REMARK   77  A    between atoms: _179  and  _180
REMARK   78  A    between atoms: _180  and  _181
REMARK   79  A    between atoms: _181  and  MG_450
REMARK   80  A    between atoms: _183  and  _185
REMARK   81  A    between atoms: _185  and  _186
REMARK   82  A    between atoms: _185  and  _188
REMARK   83  A    between atoms: _188  and  _189
REMARK   84  A    between atoms: _189  and  _190
REMARK   85  A    between atoms: _193  and  _195
REMARK   86  A    between atoms: _195  and  _196
REMARK   87  A    between atoms: _195  and  _198
REMARK   88  A    between atoms: _198  and  _199
REMARK   89  A    between atoms: _199  and  _200
REMARK   90  A    between atoms: _202  and  _204
REMARK   91  A    between atoms: _204  and  _205
REMARK   92  A    between atoms: _204  and  _207
REMARK   93  A    between atoms: _207  and  _208
REMARK   94  A    between atoms: _213  and  _214
REMARK   95  A    between atoms: _216  and  _218
REMARK   96  A    between atoms: _218  and  _219
REMARK   97  A    between atoms: _218  and  _221
REMARK   98  A    between atoms: _221  and  _222
REMARK   99  A    between atoms: _222  and  _223
REMARK  100  A    between atoms: _223  and  _224
REMARK  101  A    between atoms: _224  and  _225
REMARK  102  A    between atoms: _229  and  _231
REMARK  103  A    between atoms: _231  and  _232
REMARK  104  A    between atoms: _231  and  _234
REMARK  105  A    between atoms: _236  and  _238
REMARK  106  A    between atoms: _238  and  _239
REMARK  107  A    between atoms: _238  and  _241
REMARK  108  A    between atoms: _241  and  _242
REMARK  109  A    between atoms: _242  and  _243
REMARK  110  A    between atoms: _246  and  _248
REMARK  111  A    between atoms: _248  and  _249
REMARK  112  A    between atoms: _248  and  _251
REMARK  113  A    between atoms: _251  and  _252
REMARK  114  A    between atoms: _257  and  _259
REMARK  115  A    between atoms: _259  and  _260
REMARK  116  A    between atoms: _263  and  _265
REMARK  117  A    between atoms: _265  and  _266
REMARK  118  A    between atoms: _265  and  _268
REMARK  119  A    between atoms: _268  and  _269
REMARK  120  A    between atoms: _269  and  _270
REMARK  121  A    between atoms: _272  and  _274
REMARK  122  A    between atoms: _274  and  _275
REMARK  123  A    between atoms: _274  and  _277
REMARK  124  A    between atoms: _277  and  _278
REMARK  125  A    between atoms: _288  and  _290
REMARK  126  A    between atoms: _290  and  _291
REMARK  127  A    between atoms: _290  and  _293
REMARK  128  A    between atoms: _293  and  _294
REMARK  129  A    between atoms: _297  and  _299
REMARK  130  A    between atoms: _299  and  _300
REMARK  131  A    between atoms: _299  and  _302
REMARK  132  A    between atoms: _302  and  _303
REMARK  133  A    between atoms: _303  and  _304
REMARK  134  A    between atoms: _309  and  _311
REMARK  135  A    between atoms: _311  and  _312
REMARK  136  A    between atoms: _311  and  _314
REMARK  137  A    between atoms: _314  and  _315
REMARK  138  A    between atoms: _318  and  _320
REMARK  139  A    between atoms: _320  and  _321
REMARK  140  A    between atoms: _320  and  _323
REMARK  141  A    between atoms: _323  and  _324
REMARK  142  A    between atoms: _324  and  _325
REMARK  143  A    between atoms: _330  and  _332
REMARK  144  A    between atoms: _332  and  _333
REMARK  145  A    between atoms: _332  and  _335
REMARK  146  A    between atoms: _335  and  _336
REMARK  147  A    between atoms: _342  and  _344
REMARK  148  A    between atoms: _344  and  _345
REMARK  149  A    between atoms: _344  and  _347
REMARK  150  A    between atoms: _349  and  _351
REMARK  151  A    between atoms: _351  and  _352
REMARK  152  A    between atoms: _351  and  _354
REMARK  153  A    between atoms: _354  and  _355
REMARK  154  A    between atoms: _355  and  _356
REMARK  155  A    between atoms: _358  and  _360
REMARK  156  A    between atoms: _360  and  _361
REMARK  157  A    between atoms: _360  and  _363
REMARK  158  A    between atoms: _363  and  _364
REMARK  159  A    between atoms: _369  and  _371
REMARK  160  A    between atoms: _371  and  _372
REMARK  161  A    between atoms: _374  and  _376
REMARK  162  A    between atoms: _376  and  _377
REMARK  163  A    between atoms: _376  and  _379
REMARK  164  A    between atoms: _382  and  _384
REMARK  165  A    between atoms: _384  and  _385
REMARK  166  A    between atoms: _384  and  _387
REMARK  167  A    between atoms: _387  and  _388
REMARK  168  A    between atoms: _391  and  _393
REMARK  169  A    between atoms: _393  and  _394
REMARK  170  A    between atoms: _393  and  _396
REMARK  171  A    between atoms: _396  and  _397
REMARK  172  A    between atoms: _399  and  _401
REMARK  173  A    between atoms: _401  and  _402
REMARK  174  A    between atoms: _401  and  _404
REMARK  175  A    between atoms: _404  and  _405
REMARK  176  A    between atoms: _415  and  _417
REMARK  177  A    between atoms: _417  and  _418
REMARK  178  A    between atoms: _417  and  _420
REMARK  179  A    between atoms: _420  and  _421
REMARK  180  A    between atoms: _423  and  _425
REMARK  181  A    between atoms: _425  and  _426
REMARK  182  A    between atoms: _425  and  _428
REMARK  183  A    between atoms: _428  and  _429
REMARK  184  A    between atoms: _429  and  _430
REMARK  185  A    between atoms: _433  and  _435
REMARK  186  A    between atoms: _435  and  _436
REMARK  187  A    between atoms: _435  and  _438
REMARK  188  A    between atoms: _438  and  _439
REMARK  189  A    between atoms: _439  and  _440
REMARK  190  A    between atoms: _440  and  _441
REMARK                            x       y       z     vdW  Elec       q    Type
REMARK                         _______ _______ _______ _____ _____    ______ ____
ROOT
ATOM      1  CB  HIS A   1       4.184  30.953  79.928  0.00  0.00    +0.072 C 
ENDROOT
BRANCH   1   2
ATOM      2  CG  HIS A   1       5.039  30.090  79.052  0.00  0.00    +0.082 A 
ATOM      3  ND1 HIS A   1       4.888  28.722  78.983  0.00  0.00    -0.227 NA
ATOM      4  CE1 HIS A   1       5.745  28.230  78.106  0.00  0.00    +0.199 A 
ATOM      5  NE2 HIS A   1       6.449  29.229  77.605  0.00  0.00    -0.221 NA
ATOM      6  CD2 HIS A   1       6.029  30.404  78.182  0.00  0.00    +0.115 A 
ENDBRANCH   1   2
BRANCH   1   7
ATOM      7  CA  HIS A   1       2.703  30.988  79.512  0.00  0.00    +0.139 C 
BRANCH   7   8
ATOM      8  N   HIS A   1       2.542  31.581  78.181  0.00  0.00    -0.239 NA
ATOM      9  H   HIS A   1       2.623  32.615  78.109  0.00  0.00    +0.142 HD
ENDBRANCH   7   8
BRANCH   7  10
ATOM     10  C   HIS A   1       1.949  31.974  80.397  0.00  0.00    +0.224 C 
ATOM     11  O   HIS A   1       2.548  32.699  81.194  0.00  0.00    -0.287 OA
ENDBRANCH   7  10
ENDBRANCH   1   7
TORSDOF 4
REMARK  Name = ../refined-set-2016/3muz/3muz_pocket.pdb
REMARK  190 active torsions:
REMARK  status: ('A' for Active; 'I' for Inactive)
REMARK    1  A    between atoms: _1  and  _3
REMARK    2  A    between atoms: _3  and  _4
REMARK    3  A    between atoms: _3  and  _6
REMARK    4  A    between atoms: _6  and  _7
REMARK    5  A    between atoms: _12  and  _13
REMARK    6  A    between atoms: _15  and  _17
REMARK    7  A    between atoms: _17  and  _18
REMARK    8  A    between atoms: _17  and  _20
REMARK    9  A    between atoms: _20  and  _21
REMARK   10  A    between atoms: _26  and  _28
REMARK   11  A    between atoms: _28  and  _29
REMARK   12  A    between atoms: _28  and  _31
REMARK   13  A    between atoms: _34  and  _36
REMARK   14  A    between atoms: _36  and  _37
REMARK   15  A    between atoms: _36  and  _39
REMARK   16  A    between atoms: _39  and  _40
REMARK   17  A    between atoms: _43  and  _45
REMARK   18  A    between atoms: _45  and  _46
REMARK   19  A    between atoms: _45  and  _48
REMARK   20  A    between atoms: _48  and  _49
REMARK   21  A    between atoms: _52  and  _54
REMARK   22  A    between atoms: _54  and  _55
REMARK   23  A    between atoms: _54  and  _57
REMARK   24  A    between atoms: _57  and  _58
REMARK   25  A    between atoms: _58  and  _59
REMARK   26  A    between atoms: _64  and  _66
REMARK   27  A    between atoms: _66  and  _67
REMARK   28  A    between atoms: _66  and  _69
REMARK   29  A    between atoms: _69  and  _70
REMARK   30  A    between atoms: _73  and  _75
REMARK   31  A    between atoms: _75  and  _76
REMARK   32  A    between atoms: _75  and  _78
REMARK   33  A    between atoms: _78  and  _79
REMARK   34  A    between atoms: _79  and  _80
REMARK   35  A    between atoms: _82  and  _84
REMARK   36  A    between atoms: _84  and  _85
REMARK   37  A    between atoms: _84  and  _87
REMARK   38  A    between atoms: _87  and  _88
REMARK   39  A    between atoms: _93  and  _95
REMARK   40  A    between atoms: _95  and  _96
REMARK   41  A    between atoms: _95  and  _98
REMARK   42  A    between atoms: _98  and  _99
REMARK   43  A    between atoms: _104  and  _106
REMARK   44  A    between atoms: _106  and  _107
REMARK   45  A    between atoms: _106  and  _109
REMARK   46  A    between atoms: _109  and  _110
REMARK   47  A    between atoms: _110  and  _111
REMARK   48  A    between atoms: _111  and  _112
REMARK   49  A    between atoms: _121  and  _123
REMARK   50  A    between atoms: _123  and  _124
REMARK   51  A    between atoms: _123  and  _126
REMARK   52  A    between atoms: _126  and  _127
REMARK   53  A    between atoms: _132  and  _134
REMARK   54  A    between atoms: _134  and  _135
REMARK   55  A    between atoms: _134  and  _137
REMARK   56  A    between atoms: _137  and  _138
REMARK   57  A    between atoms: _138  and  _139
REMARK   58  A    between atoms: _139  and  _141
REMARK   59  A    between atoms: _141  and  MG_450
REMARK   60  A    between atoms: _142  and  _144
REMARK   61  A    between atoms: _144  and  _145
REMARK   62  A    between atoms: _144  and  _147
REMARK   63  A    between atoms: _147  and  _148
REMARK   64  A    between atoms: _153  and  _155
REMARK   65  A    between atoms: _155  and  _156
REMARK   66  A    between atoms: _155  and  _158
REMARK   67  A    between atoms: _158  and  _159
REMARK   68  A    between atoms: _159  and  _160
REMARK   69  A    between atoms: _162  and  _164
REMARK   70  A    between atoms: _164  and  _165
REMARK   71  A    between atoms: _164  and  _167
REMARK   72  A    between atoms: _167  and  _168
REMARK   73  A    between atoms: _173  and  _175
REMARK   74  A    between atoms: _175  and  _176
REMARK   75  A    between atoms: _175  and  _178
REMARK   76  A    between atoms: _178  and  _179
REMARK   77  A    between atoms: _179  and  _180
REMARK   78  A    between atoms: _180  and  _181
REMARK   79  A    between atoms: _181  and  MG_450
REMARK   80  A    between atoms: _183  and  _185
REMARK   81  A    between atoms: _185  and  _186
REMARK   82  A    between atoms: _185  and  _188
REMARK   83  A    between atoms: _188  and  _189
REMARK   84  A    between atoms: _189  and  _190
REMARK   85  A    between atoms: _193  and  _195
REMARK   86  A    between atoms: _195  and  _196
REMARK   87  A    between atoms: _195  and  _198
REMARK   88  A    between atoms: _198  and  _199
REMARK   89  A    between atoms: _199  and  _200
REMARK   90  A    between atoms: _202  and  _204
REMARK   91  A    between atoms: _204  and  _205
REMARK   92  A    between atoms: _204  and  _207
REMARK   93  A    between atoms: _207  and  _208
REMARK   94  A    between atoms: _213  and  _214
REMARK   95  A    between atoms: _216  and  _218
REMARK   96  A    between atoms: _218  and  _219
REMARK   97  A    between atoms: _218  and  _221
REMARK   98  A    between atoms: _221  and  _222
REMARK   99  A    between atoms: _222  and  _223
REMARK  100  A    between atoms: _223  and  _224
REMARK  101  A    between atoms: _224  and  _225
REMARK  102  A    between atoms: _229  and  _231
REMARK  103  A    between atoms: _231  and  _232
REMARK  104  A    between atoms: _231  and  _234
REMARK  105  A    between atoms: _236  and  _238
REMARK  106  A    between atoms: _238  and  _239
REMARK  107  A    between atoms: _238  and  _241
REMARK  108  A    between atoms: _241  and  _242
REMARK  109  A    between atoms: _242  and  _243
REMARK  110  A    between atoms: _246  and  _248
REMARK  111  A    between atoms: _248  and  _249
REMARK  112  A    between atoms: _248  and  _251
REMARK  113  A    between atoms: _251  and  _252
REMARK  114  A    between atoms: _257  and  _259
REMARK  115  A    between atoms: _259  and  _260
REMARK  116  A    between atoms: _263  and  _265
REMARK  117  A    between atoms: _265  and  _266
REMARK  118  A    between atoms: _265  and  _268
REMARK  119  A    between atoms: _268  and  _269
REMARK  120  A    between atoms: _269  and  _270
REMARK  121  A    between atoms: _272  and  _274
REMARK  122  A    between atoms: _274  and  _275
REMARK  123  A    between atoms: _274  and  _277
REMARK  124  A    between atoms: _277  and  _278
REMARK  125  A    between atoms: _288  and  _290
REMARK  126  A    between atoms: _290  and  _291
REMARK  127  A    between atoms: _290  and  _293
REMARK  128  A    between atoms: _293  and  _294
REMARK  129  A    between atoms: _297  and  _299
REMARK  130  A    between atoms: _299  and  _300
REMARK  131  A    between atoms: _299  and  _302
REMARK  132  A    between atoms: _302  and  _303
REMARK  133  A    between atoms: _303  and  _304
REMARK  134  A    between atoms: _309  and  _311
REMARK  135  A    between atoms: _311  and  _312
REMARK  136  A    between atoms: _311  and  _314
REMARK  137  A    between atoms: _314  and  _315
REMARK  138  A    between atoms: _318  and  _320
REMARK  139  A    between atoms: _320  and  _321
REMARK  140  A    between atoms: _320  and  _323
REMARK  141  A    between atoms: _323  and  _324
REMARK  142  A    between atoms: _324  and  _325
REMARK  143  A    between atoms: _330  and  _332
REMARK  144  A    between atoms: _332  and  _333
REMARK  145  A    between atoms: _332  and  _335
REMARK  146  A    between atoms: _335  and  _336
REMARK  147  A    between atoms: _342  and  _344
REMARK  148  A    between atoms: _344  and  _345
REMARK  149  A    between atoms: _344  and  _347
REMARK  150  A    between atoms: _349  and  _351
REMARK  151  A    between atoms: _351  and  _352
REMARK  152  A    between atoms: _351  and  _354
REMARK  153  A    between atoms: _354  and  _355
REMARK  154  A    between atoms: _355  and  _356
REMARK  155  A    between atoms: _358  and  _360
REMARK  156  A    between atoms: _360  and  _361
REMARK  157  A    between atoms: _360  and  _363
REMARK  158  A    between atoms: _363  and  _364
REMARK  159  A    between atoms: _369  and  _371
REMARK  160  A    between atoms: _371  and  _372
REMARK  161  A    between atoms: _374  and  _376
REMARK  162  A    between atoms: _376  and  _377
REMARK  163  A    between atoms: _376  and  _379
REMARK  164  A    between atoms: _382  and  _384
REMARK  165  A    between atoms: _384  and  _385
REMARK  166  A    between atoms: _384  and  _387
REMARK  167  A    between atoms: _387  and  _388
REMARK  168  A    between atoms: _391  and  _393
REMARK  169  A    between atoms: _393  and  _394
REMARK  170  A    between atoms: _393  and  _396
REMARK  171  A    between atoms: _396  and  _397
REMARK  172  A    between atoms: _399  and  _401
REMARK  173  A    between atoms: _401  and  _402
REMARK  174  A    between atoms: _401  and  _404
REMARK  175  A    between atoms: _404  and  _405
REMARK  176  A    between atoms: _415  and  _417
REMARK  177  A    between atoms: _417  and  _418
REMARK  178  A    between atoms: _417  and  _420
REMARK  179  A    between atoms: _420  and  _421
REMARK  180  A    between atoms: _423  and  _425
REMARK  181  A    between atoms: _425  and  _426
REMARK  182  A    between atoms: _425  and  _428
REMARK  183  A    between atoms: _428  and  _429
REMARK  184  A    between atoms: _429  and  _430
REMARK  185  A    between atoms: _433  and  _435
REMARK  186  A    between atoms: _435  and  _436
REMARK  187  A    between atoms: _435  and  _438
REMARK  188  A    between atoms: _438  and  _439
REMARK  189  A    between atoms: _439  and  _440
REMARK  190  A    between atoms: _440  and  _441
REMARK                            x       y       z     vdW  Elec       q    Type
REMARK                         _______ _______ _______ _____ _____    ______ ____
ROOT
ATOM      1  C   UNK A   2      11.237  28.683  82.678  0.00  0.00    +0.000 C 
ENDROOT
BRANCH   1   2
ATOM      2  C   UNK A   2      11.012  27.703  81.526  0.00  0.00    +0.000 C 
BRANCH   2   3
ATOM      3  C   UNK A   2      11.630  28.134  80.202  0.00  0.00    +0.000 C 
ATOM      4  O   UNK A   2      12.512  27.404  79.708  0.00  0.00    +0.000 OA
BRANCH   3   5
ATOM      5  O   UNK A   2      11.234  29.184  79.650  0.00  0.00    +0.000 OA
BRANCH   5   6
ATOM      6 MG   UNK A   1      11.764  31.086  79.343  0.00  0.00    +0.000 Mg
BRANCH   6   7
ATOM      7  O   UNK A   1      10.580  31.677  80.897  0.00  0.00    +0.000 OA
BRANCH   7   8
ATOM      8  C   UNK A   1       9.453  32.015  81.309  0.00  0.00    +0.000 C 
ATOM      9  O   UNK A   1       8.404  31.801  80.661  0.00  0.00    +0.000 OA
BRANCH   8  10
ATOM     10  C   UNK A   1       9.391  32.716  82.656  0.00  0.00    +0.000 C 
BRANCH  10  11
ATOM     11  C   UNK A   1       7.976  32.953  83.200  0.00  0.00    +0.000 C 
BRANCH  11  12
ATOM     12  C   UNK A   1       7.978  32.998  84.736  0.00  0.00    +0.000 C 
BRANCH  12  13
ATOM     13  N   UNK A   1       6.725  33.508  85.295  0.00  0.00    +0.000 NA
ATOM     14  H   UNK A   1       6.611  34.535  85.417  0.00  0.00    +0.000 HD
ENDBRANCH  12  13
BRANCH  12  15
ATOM     15  C   UNK A   1       9.124  33.885  85.209  0.00  0.00    +0.000 C 
ATOM     16  O   UNK A   1       9.143  35.088  84.936  0.00  0.00    +0.000 OA
ENDBRANCH  12  15
ENDBRANCH  11  12
ENDBRANCH  10  11
ENDBRANCH   8  10
ENDBRANCH   7   8
ENDBRANCH   6   7
ENDBRANCH   5   6
ENDBRANCH   3   5
ENDBRANCH   2   3
ENDBRANCH   1   2
BRANCH   1  17
ATOM     17  C   UNK A   2      10.592  28.181  83.981  0.00  0.00    +0.000 C 
BRANCH  17  18
ATOM     18  N   UNK A   2       9.194  27.873  83.715  0.00  0.00    +0.000 N 
ATOM     19  C   UNK A   1       8.224  28.772  83.846  0.00  0.00    +0.000 C 
ATOM     20  O   UNK A   1       8.414  29.922  84.246  0.00  0.00    +0.000 OA
ATOM     21  H   UNK A   2       8.944  26.911  83.410  0.00  0.00    +0.000 HD
BRANCH  19  22
ATOM     22  C   UNK A   1       6.829  28.290  83.469  0.00  0.00    +0.000 C 
BRANCH  22  23
ATOM     23  N   UNK A   1       5.785  28.814  84.332  0.00  0.00    +0.000 NA
ATOM     24  H   UNK A   1       5.896  29.748  84.775  0.00  0.00    +0.000 HD
ENDBRANCH  22  23
BRANCH  22  25
ATOM     25  C   UNK A   1       6.518  28.687  82.020  0.00  0.00    +0.000 C 
BRANCH  25  26
ATOM     26  C   UNK A   1       7.448  28.033  81.013  0.00  0.00    +0.000 C 
ATOM     27  O   UNK A   1       7.457  26.809  80.861  0.00  0.00    +0.000 OA
ATOM     28  N   UNK A   1       8.231  28.850  80.312  0.00  0.00    +0.000 N 
ATOM     29  H   UNK A   1       8.189  29.876  80.474  0.00  0.00    +0.000 HD
ATOM     30  H   UNK A   1       8.884  28.462  79.602  0.00  0.00    +0.000 HD
ENDBRANCH  25  26
ENDBRANCH  22  25
ENDBRANCH  19  22
ENDBRANCH  17  18
BRANCH  17  31
ATOM     31  C   UNK A   2      10.836  29.165  85.124  0.00  0.00    +0.000 C 
ATOM     32  O   UNK A   2      11.269  30.303  84.915  0.00  0.00    +0.000 OA
ENDBRANCH  17  31
ENDBRANCH   1  17
TORSDOF 18
REMARK  Name = ../refined-set-2016/3muz/3muz_pocket.pdb
REMARK  190 active torsions:
REMARK  status: ('A' for Active; 'I' for Inactive)
REMARK    1  A    between atoms: _1  and  _3
REMARK    2  A    between atoms: _3  and  _4
REMARK    3  A    between atoms: _3  and  _6
REMARK    4  A    between atoms: _6  and  _7
REMARK    5  A    between atoms: _12  and  _13
REMARK    6  A    between atoms: _15  and  _17
REMARK    7  A    between atoms: _17  and  _18
REMARK    8  A    between atoms: _17  and  _20
REMARK    9  A    between atoms: _20  and  _21
REMARK   10  A    between atoms: _26  and  _28
REMARK   11  A    between atoms: _28  and  _29
REMARK   12  A    between atoms: _28  and  _31
REMARK   13  A    between atoms: _34  and  _36
REMARK   14  A    between atoms: _36  and  _37
REMARK   15  A    between atoms: _36  and  _39
REMARK   16  A    between atoms: _39  and  _40
REMARK   17  A    between atoms: _43  and  _45
REMARK   18  A    between atoms: _45  and  _46
REMARK   19  A    between atoms: _45  and  _48
REMARK   20  A    between atoms: _48  and  _49
REMARK   21  A    between atoms: _52  and  _54
REMARK   22  A    between atoms: _54  and  _55
REMARK   23  A    between atoms: _54  and  _57
REMARK   24  A    between atoms: _57  and  _58
REMARK   25  A    between atoms: _58  and  _59
REMARK   26  A    between atoms: _64  and  _66
REMARK   27  A    between atoms: _66  and  _67
REMARK   28  A    between atoms: _66  and  _69
REMARK   29  A    between atoms: _69  and  _70
REMARK   30  A    between atoms: _73  and  _75
REMARK   31  A    between atoms: _75  and  _76
REMARK   32  A    between atoms: _75  and  _78
REMARK   33  A    between atoms: _78  and  _79
REMARK   34  A    between atoms: _79  and  _80
REMARK   35  A    between atoms: _82  and  _84
REMARK   36  A    between atoms: _84  and  _85
REMARK   37  A    between atoms: _84  and  _87
REMARK   38  A    between atoms: _87  and  _88
REMARK   39  A    between atoms: _93  and  _95
REMARK   40  A    between atoms: _95  and  _96
REMARK   41  A    between atoms: _95  and  _98
REMARK   42  A    between atoms: _98  and  _99
REMARK   43  A    between atoms: _104  and  _106
REMARK   44  A    between atoms: _106  and  _107
REMARK   45  A    between atoms: _106  and  _109
REMARK   46  A    between atoms: _109  and  _110
REMARK   47  A    between atoms: _110  and  _111
REMARK   48  A    between atoms: _111  and  _112
REMARK   49  A    between atoms: _121  and  _123
REMARK   50  A    between atoms: _123  and  _124
REMARK   51  A    between atoms: _123  and  _126
REMARK   52  A    between atoms: _126  and  _127
REMARK   53  A    between atoms: _132  and  _134
REMARK   54  A    between atoms: _134  and  _135
REMARK   55  A    between atoms: _134  and  _137
REMARK   56  A    between atoms: _137  and  _138
REMARK   57  A    between atoms: _138  and  _139
REMARK   58  A    between atoms: _139  and  _141
REMARK   59  A    between atoms: _141  and  MG_450
REMARK   60  A    between atoms: _142  and  _144
REMARK   61  A    between atoms: _144  and  _145
REMARK   62  A    between atoms: _144  and  _147
REMARK   63  A    between atoms: _147  and  _148
REMARK   64  A    between atoms: _153  and  _155
REMARK   65  A    between atoms: _155  and  _156
REMARK   66  A    between atoms: _155  and  _158
REMARK   67  A    between atoms: _158  and  _159
REMARK   68  A    between atoms: _159  and  _160
REMARK   69  A    between atoms: _162  and  _164
REMARK   70  A    between atoms: _164  and  _165
REMARK   71  A    between atoms: _164  and  _167
REMARK   72  A    between atoms: _167  and  _168
REMARK   73  A    between atoms: _173  and  _175
REMARK   74  A    between atoms: _175  and  _176
REMARK   75  A    between atoms: _175  and  _178
REMARK   76  A    between atoms: _178  and  _179
REMARK   77  A    between atoms: _179  and  _180
REMARK   78  A    between atoms: _180  and  _181
REMARK   79  A    between atoms: _181  and  MG_450
REMARK   80  A    between atoms: _183  and  _185
REMARK   81  A    between atoms: _185  and  _186
REMARK   82  A    between atoms: _185  and  _188
REMARK   83  A    between atoms: _188  and  _189
REMARK   84  A    between atoms: _189  and  _190
REMARK   85  A    between atoms: _193  and  _195
REMARK   86  A    between atoms: _195  and  _196
REMARK   87  A    between atoms: _195  and  _198
REMARK   88  A    between atoms: _198  and  _199
REMARK   89  A    between atoms: _199  and  _200
REMARK   90  A    between atoms: _202  and  _204
REMARK   91  A    between atoms: _204  and  _205
REMARK   92  A    between atoms: _204  and  _207
REMARK   93  A    between atoms: _207  and  _208
REMARK   94  A    between atoms: _213  and  _214
REMARK   95  A    between atoms: _216  and  _218
REMARK   96  A    between atoms: _218  and  _219
REMARK   97  A    between atoms: _218  and  _221
REMARK   98  A    between atoms: _221  and  _222
REMARK   99  A    between atoms: _222  and  _223
REMARK  100  A    between atoms: _223  and  _224
REMARK  101  A    between atoms: _224  and  _225
REMARK  102  A    between atoms: _229  and  _231
REMARK  103  A    between atoms: _231  and  _232
REMARK  104  A    between atoms: _231  and  _234
REMARK  105  A    between atoms: _236  and  _238
REMARK  106  A    between atoms: _238  and  _239
REMARK  107  A    between atoms: _238  and  _241
REMARK  108  A    between atoms: _241  and  _242
REMARK  109  A    between atoms: _242  and  _243
REMARK  110  A    between atoms: _246  and  _248
REMARK  111  A    between atoms: _248  and  _249
REMARK  112  A    between atoms: _248  and  _251
REMARK  113  A    between atoms: _251  and  _252
REMARK  114  A    between atoms: _257  and  _259
REMARK  115  A    between atoms: _259  and  _260
REMARK  116  A    between atoms: _263  and  _265
REMARK  117  A    between atoms: _265  and  _266
REMARK  118  A    between atoms: _265  and  _268
REMARK  119  A    between atoms: _268  and  _269
REMARK  120  A    between atoms: _269  and  _270
REMARK  121  A    between atoms: _272  and  _274
REMARK  122  A    between atoms: _274  and  _275
REMARK  123  A    between atoms: _274  and  _277
REMARK  124  A    between atoms: _277  and  _278
REMARK  125  A    between atoms: _288  and  _290
REMARK  126  A    between atoms: _290  and  _291
REMARK  127  A    between atoms: _290  and  _293
REMARK  128  A    between atoms: _293  and  _294
REMARK  129  A    between atoms: _297  and  _299
REMARK  130  A    between atoms: _299  and  _300
REMARK  131  A    between atoms: _299  and  _302
REMARK  132  A    between atoms: _302  and  _303
REMARK  133  A    between atoms: _303  and  _304
REMARK  134  A    between atoms: _309  and  _311
REMARK  135  A    between atoms: _311  and  _312
REMARK  136  A    between atoms: _311  and  _314
REMARK  137  A    between atoms: _314  and  _315
REMARK  138  A    between atoms: _318  and  _320
REMARK  139  A    between atoms: _320  and  _321
REMARK  140  A    between atoms: _320  and  _323
REMARK  141  A    between atoms: _323  and  _324
REMARK  142  A    between atoms: _324  and  _325
REMARK  143  A    between atoms: _330  and  _332
REMARK  144  A    between atoms: _332  and  _333
REMARK  145  A    between atoms: _332  and  _335
REMARK  146  A    between atoms: _335  and  _336
REMARK  147  A    between atoms: _342  and  _344
REMARK  148  A    between atoms: _344  and  _345
REMARK  149  A    between atoms: _344  and  _347
REMARK  150  A    between atoms: _349  and  _351
REMARK  151  A    between atoms: _351  and  _352
REMARK  152  A    between atoms: _351  and  _354
REMARK  153  A    between atoms: _354  and  _355
REMARK  154  A    between atoms: _355  and  _356
REMARK  155  A    between atoms: _358  and  _360
REMARK  156  A    between atoms: _360  and  _361
REMARK  157  A    between atoms: _360  and  _363
REMARK  158  A    between atoms: _363  and  _364
REMARK  159  A    between atoms: _369  and  _371
REMARK  160  A    between atoms: _371  and  _372
REMARK  161  A    between atoms: _374  and  _376
REMARK  162  A    between atoms: _376  and  _377
REMARK  163  A    between atoms: _376  and  _379
REMARK  164  A    between atoms: _382  and  _384
REMARK  165  A    between atoms: _384  and  _385
REMARK  166  A    between atoms: _384  and  _387
REMARK  167  A    between atoms: _387  and  _388
REMARK  168  A    between atoms: _391  and  _393
REMARK  169  A    between atoms: _393  and  _394
REMARK  170  A    between atoms: _393  and  _396
REMARK  171  A    between atoms: _396  and  _397
REMARK  172  A    between atoms: _399  and  _401
REMARK  173  A    between atoms: _401  and  _402
REMARK  174  A    between atoms: _401  and  _404
REMARK  175  A    between atoms: _404  and  _405
REMARK  176  A    between atoms: _415  and  _417
REMARK  177  A    between atoms: _417  and  _418
REMARK  178  A    between atoms: _417  and  _420
REMARK  179  A    between atoms: _420  and  _421
REMARK  180  A    between atoms: _423  and  _425
REMARK  181  A    between atoms: _425  and  _426
REMARK  182  A    between atoms: _425  and  _428
REMARK  183  A    between atoms: _428  and  _429
REMARK  184  A    between atoms: _429  and  _430
REMARK  185  A    between atoms: _433  and  _435
REMARK  186  A    between atoms: _435  and  _436
REMARK  187  A    between atoms: _435  and  _438
REMARK  188  A    between atoms: _438  and  _439
REMARK  189  A    between atoms: _439  and  _440
REMARK  190  A    between atoms: _440  and  _441
REMARK                            x       y       z     vdW  Elec       q    Type
REMARK                         _______ _______ _______ _____ _____    ______ ____
ROOT
ATOM      1  CB  HIS A   1      13.302  32.224  82.484  0.00  0.00    +0.072 C 
ENDROOT
BRANCH   1   2
ATOM      2  CG  HIS A   1      14.011  31.104  81.784  0.00  0.00    +0.082 A 
ATOM      3  CD2 HIS A   1      15.090  30.366  82.139  0.00  0.00    +0.115 A 
ATOM      4  NE2 HIS A   1      15.327  29.476  81.118  0.00  0.00    -0.221 NA
ATOM      5  CE1 HIS A   1      14.426  29.660  80.171  0.00  0.00    +0.199 A 
ATOM      6  ND1 HIS A   1      13.619  30.636  80.547  0.00  0.00    -0.227 NA
ENDBRANCH   1   2
BRANCH   1   7
ATOM      7  CA  HIS A   1      13.610  32.322  83.985  0.00  0.00    +0.139 C 
BRANCH   7   8
ATOM      8  N   HIS A   1      12.482  32.961  84.661  0.00  0.00    -0.239 NA
ATOM      9  H   HIS A   1      11.598  33.093  84.129  0.00  0.00    +0.142 HD
ENDBRANCH   7   8
BRANCH   7  10
ATOM     10  C   HIS A   1      14.972  32.997  84.192  0.00  0.00    +0.224 C 
ATOM     11  O   HIS A   1      15.965  32.325  84.467  0.00  0.00    -0.287 OA
ENDBRANCH   7  10
ENDBRANCH   1   7
TORSDOF 4
REMARK  Name = ../refined-set-2016/3muz/3muz_pocket.pdb
REMARK  190 active torsions:
REMARK  status: ('A' for Active; 'I' for Inactive)
REMARK    1  A    between atoms: _1  and  _3
REMARK    2  A    between atoms: _3  and  _4
REMARK    3  A    between atoms: _3  and  _6
REMARK    4  A    between atoms: _6  and  _7
REMARK    5  A    between atoms: _12  and  _13
REMARK    6  A    between atoms: _15  and  _17
REMARK    7  A    between atoms: _17  and  _18
REMARK    8  A    between atoms: _17  and  _20
REMARK    9  A    between atoms: _20  and  _21
REMARK   10  A    between atoms: _26  and  _28
REMARK   11  A    between atoms: _28  and  _29
REMARK   12  A    between atoms: _28  and  _31
REMARK   13  A    between atoms: _34  and  _36
REMARK   14  A    between atoms: _36  and  _37
REMARK   15  A    between atoms: _36  and  _39
REMARK   16  A    between atoms: _39  and  _40
REMARK   17  A    between atoms: _43  and  _45
REMARK   18  A    between atoms: _45  and  _46
REMARK   19  A    between atoms: _45  and  _48
REMARK   20  A    between atoms: _48  and  _49
REMARK   21  A    between atoms: _52  and  _54
REMARK   22  A    between atoms: _54  and  _55
REMARK   23  A    between atoms: _54  and  _57
REMARK   24  A    between atoms: _57  and  _58
REMARK   25  A    between atoms: _58  and  _59
REMARK   26  A    between atoms: _64  and  _66
REMARK   27  A    between atoms: _66  and  _67
REMARK   28  A    between atoms: _66  and  _69
REMARK   29  A    between atoms: _69  and  _70
REMARK   30  A    between atoms: _73  and  _75
REMARK   31  A    between atoms: _75  and  _76
REMARK   32  A    between atoms: _75  and  _78
REMARK   33  A    between atoms: _78  and  _79
REMARK   34  A    between atoms: _79  and  _80
REMARK   35  A    between atoms: _82  and  _84
REMARK   36  A    between atoms: _84  and  _85
REMARK   37  A    between atoms: _84  and  _87
REMARK   38  A    between atoms: _87  and  _88
REMARK   39  A    between atoms: _93  and  _95
REMARK   40  A    between atoms: _95  and  _96
REMARK   41  A    between atoms: _95  and  _98
REMARK   42  A    between atoms: _98  and  _99
REMARK   43  A    between atoms: _104  and  _106
REMARK   44  A    between atoms: _106  and  _107
REMARK   45  A    between atoms: _106  and  _109
REMARK   46  A    between atoms: _109  and  _110
REMARK   47  A    between atoms: _110  and  _111
REMARK   48  A    between atoms: _111  and  _112
REMARK   49  A    between atoms: _121  and  _123
REMARK   50  A    between atoms: _123  and  _124
REMARK   51  A    between atoms: _123  and  _126
REMARK   52  A    between atoms: _126  and  _127
REMARK   53  A    between atoms: _132  and  _134
REMARK   54  A    between atoms: _134  and  _135
REMARK   55  A    between atoms: _134  and  _137
REMARK   56  A    between atoms: _137  and  _138
REMARK   57  A    between atoms: _138  and  _139
REMARK   58  A    between atoms: _139  and  _141
REMARK   59  A    between atoms: _141  and  MG_450
REMARK   60  A    between atoms: _142  and  _144
REMARK   61  A    between atoms: _144  and  _145
REMARK   62  A    between atoms: _144  and  _147
REMARK   63  A    between atoms: _147  and  _148
REMARK   64  A    between atoms: _153  and  _155
REMARK   65  A    between atoms: _155  and  _156
REMARK   66  A    between atoms: _155  and  _158
REMARK   67  A    between atoms: _158  and  _159
REMARK   68  A    between atoms: _159  and  _160
REMARK   69  A    between atoms: _162  and  _164
REMARK   70  A    between atoms: _164  and  _165
REMARK   71  A    between atoms: _164  and  _167
REMARK   72  A    between atoms: _167  and  _168
REMARK   73  A    between atoms: _173  and  _175
REMARK   74  A    between atoms: _175  and  _176
REMARK   75  A    between atoms: _175  and  _178
REMARK   76  A    between atoms: _178  and  _179
REMARK   77  A    between atoms: _179  and  _180
REMARK   78  A    between atoms: _180  and  _181
REMARK   79  A    between atoms: _181  and  MG_450
REMARK   80  A    between atoms: _183  and  _185
REMARK   81  A    between atoms: _185  and  _186
REMARK   82  A    between atoms: _185  and  _188
REMARK   83  A    between atoms: _188  and  _189
REMARK   84  A    between atoms: _189  and  _190
REMARK   85  A    between atoms: _193  and  _195
REMARK   86  A    between atoms: _195  and  _196
REMARK   87  A    between atoms: _195  and  _198
REMARK   88  A    between atoms: _198  and  _199
REMARK   89  A    between atoms: _199  and  _200
REMARK   90  A    between atoms: _202  and  _204
REMARK   91  A    between atoms: _204  and  _205
REMARK   92  A    between atoms: _204  and  _207
REMARK   93  A    between atoms: _207  and  _208
REMARK   94  A    between atoms: _213  and  _214
REMARK   95  A    between atoms: _216  and  _218
REMARK   96  A    between atoms: _218  and  _219
REMARK   97  A    between atoms: _218  and  _221
REMARK   98  A    between atoms: _221  and  _222
REMARK   99  A    between atoms: _222  and  _223
REMARK  100  A    between atoms: _223  and  _224
REMARK  101  A    between atoms: _224  and  _225
REMARK  102  A    between atoms: _229  and  _231
REMARK  103  A    between atoms: _231  and  _232
REMARK  104  A    between atoms: _231  and  _234
REMARK  105  A    between atoms: _236  and  _238
REMARK  106  A    between atoms: _238  and  _239
REMARK  107  A    between atoms: _238  and  _241
REMARK  108  A    between atoms: _241  and  _242
REMARK  109  A    between atoms: _242  and  _243
REMARK  110  A    between atoms: _246  and  _248
REMARK  111  A    between atoms: _248  and  _249
REMARK  112  A    between atoms: _248  and  _251
REMARK  113  A    between atoms: _251  and  _252
REMARK  114  A    between atoms: _257  and  _259
REMARK  115  A    between atoms: _259  and  _260
REMARK  116  A    between atoms: _263  and  _265
REMARK  117  A    between atoms: _265  and  _266
REMARK  118  A    between atoms: _265  and  _268
REMARK  119  A    between atoms: _268  and  _269
REMARK  120  A    between atoms: _269  and  _270
REMARK  121  A    between atoms: _272  and  _274
REMARK  122  A    between atoms: _274  and  _275
REMARK  123  A    between atoms: _274  and  _277
REMARK  124  A    between atoms: _277  and  _278
REMARK  125  A    between atoms: _288  and  _290
REMARK  126  A    between atoms: _290  and  _291
REMARK  127  A    between atoms: _290  and  _293
REMARK  128  A    between atoms: _293  and  _294
REMARK  129  A    between atoms: _297  and  _299
REMARK  130  A    between atoms: _299  and  _300
REMARK  131  A    between atoms: _299  and  _302
REMARK  132  A    between atoms: _302  and  _303
REMARK  133  A    between atoms: _303  and  _304
REMARK  134  A    between atoms: _309  and  _311
REMARK  135  A    between atoms: _311  and  _312
REMARK  136  A    between atoms: _311  and  _314
REMARK  137  A    between atoms: _314  and  _315
REMARK  138  A    between atoms: _318  and  _320
REMARK  139  A    between atoms: _320  and  _321
REMARK  140  A    between atoms: _320  and  _323
REMARK  141  A    between atoms: _323  and  _324
REMARK  142  A    between atoms: _324  and  _325
REMARK  143  A    between atoms: _330  and  _332
REMARK  144  A    between atoms: _332  and  _333
REMARK  145  A    between atoms: _332  and  _335
REMARK  146  A    between atoms: _335  and  _336
REMARK  147  A    between atoms: _342  and  _344
REMARK  148  A    between atoms: _344  and  _345
REMARK  149  A    between atoms: _344  and  _347
REMARK  150  A    between atoms: _349  and  _351
REMARK  151  A    between atoms: _351  and  _352
REMARK  152  A    between atoms: _351  and  _354
REMARK  153  A    between atoms: _354  and  _355
REMARK  154  A    between atoms: _355  and  _356
REMARK  155  A    between atoms: _358  and  _360
REMARK  156  A    between atoms: _360  and  _361
REMARK  157  A    between atoms: _360  and  _363
REMARK  158  A    between atoms: _363  and  _364
REMARK  159  A    between atoms: _369  and  _371
REMARK  160  A    between atoms: _371  and  _372
REMARK  161  A    between atoms: _374  and  _376
REMARK  162  A    between atoms: _376  and  _377
REMARK  163  A    between atoms: _376  and  _379
REMARK  164  A    between atoms: _382  and  _384
REMARK  165  A    between atoms: _384  and  _385
REMARK  166  A    between atoms: _384  and  _387
REMARK  167  A    between atoms: _387  and  _388
REMARK  168  A    between atoms: _391  and  _393
REMARK  169  A    between atoms: _393  and  _394
REMARK  170  A    between atoms: _393  and  _396
REMARK  171  A    between atoms: _396  and  _397
REMARK  172  A    between atoms: _399  and  _401
REMARK  173  A    between atoms: _401  and  _402
REMARK  174  A    between atoms: _401  and  _404
REMARK  175  A    between atoms: _404  and  _405
REMARK  176  A    between atoms: _415  and  _417
REMARK  177  A    between atoms: _417  and  _418
REMARK  178  A    between atoms: _417  and  _420
REMARK  179  A    between atoms: _420  and  _421
REMARK  180  A    between atoms: _423  and  _425
REMARK  181  A    between atoms: _425  and  _426
REMARK  182  A    between atoms: _425  and  _428
REMARK  183  A    between atoms: _428  and  _429
REMARK  184  A    between atoms: _429  and  _430
REMARK  185  A    between atoms: _433  and  _435
REMARK  186  A    between atoms: _435  and  _436
REMARK  187  A    between atoms: _435  and  _438
REMARK  188  A    between atoms: _438  and  _439
REMARK  189  A    between atoms: _439  and  _440
REMARK  190  A    between atoms: _440  and  _441
REMARK                            x       y       z     vdW  Elec       q    Type
REMARK                         _______ _______ _______ _____ _____    ______ ____
ROOT
ATOM      1  CA  MET A   1      15.877  30.047  88.554  0.00  0.00    +0.134 C 
ENDROOT
BRANCH   1   2
ATOM      2  N   MET A   1      17.202  29.763  89.085  0.00  0.00    -0.239 NA
ATOM      3  H   MET A   1      17.700  28.895  88.802  0.00  0.00    +0.142 HD
ENDBRANCH   1   2
BRANCH   1   4
ATOM      4  C   MET A   1      14.773  30.181  89.600  0.00  0.00    +0.224 C 
ATOM      5  O   MET A   1      13.785  30.872  89.368  0.00  0.00    -0.287 OA
ENDBRANCH   1   4
BRANCH   1   6
ATOM      6  CB  MET A   1      15.471  28.989  87.529  0.00  0.00    +0.037 C 
BRANCH   6   7
ATOM      7  CG  MET A   1      14.654  29.567  86.384  0.00  0.00    +0.059 C 
BRANCH   7   8
ATOM      8  SD  MET A   1      13.911  28.326  85.313  0.00  0.00    -0.139 S 
ATOM      9  CE  MET A   1      15.389  27.507  84.642  0.00  0.00    +0.069 C 
ENDBRANCH   7   8
ENDBRANCH   6   7
ENDBRANCH   1   6
TORSDOF 5
REMARK  Name = ../refined-set-2016/3muz/3muz_pocket.pdb
REMARK  190 active torsions:
REMARK  status: ('A' for Active; 'I' for Inactive)
REMARK    1  A    between atoms: _1  and  _3
REMARK    2  A    between atoms: _3  and  _4
REMARK    3  A    between atoms: _3  and  _6
REMARK    4  A    between atoms: _6  and  _7
REMARK    5  A    between atoms: _12  and  _13
REMARK    6  A    between atoms: _15  and  _17
REMARK    7  A    between atoms: _17  and  _18
REMARK    8  A    between atoms: _17  and  _20
REMARK    9  A    between atoms: _20  and  _21
REMARK   10  A    between atoms: _26  and  _28
REMARK   11  A    between atoms: _28  and  _29
REMARK   12  A    between atoms: _28  and  _31
REMARK   13  A    between atoms: _34  and  _36
REMARK   14  A    between atoms: _36  and  _37
REMARK   15  A    between atoms: _36  and  _39
REMARK   16  A    between atoms: _39  and  _40
REMARK   17  A    between atoms: _43  and  _45
REMARK   18  A    between atoms: _45  and  _46
REMARK   19  A    between atoms: _45  and  _48
REMARK   20  A    between atoms: _48  and  _49
REMARK   21  A    between atoms: _52  and  _54
REMARK   22  A    between atoms: _54  and  _55
REMARK   23  A    between atoms: _54  and  _57
REMARK   24  A    between atoms: _57  and  _58
REMARK   25  A    between atoms: _58  and  _59
REMARK   26  A    between atoms: _64  and  _66
REMARK   27  A    between atoms: _66  and  _67
REMARK   28  A    between atoms: _66  and  _69
REMARK   29  A    between atoms: _69  and  _70
REMARK   30  A    between atoms: _73  and  _75
REMARK   31  A    between atoms: _75  and  _76
REMARK   32  A    between atoms: _75  and  _78
REMARK   33  A    between atoms: _78  and  _79
REMARK   34  A    between atoms: _79  and  _80
REMARK   35  A    between atoms: _82  and  _84
REMARK   36  A    between atoms: _84  and  _85
REMARK   37  A    between atoms: _84  and  _87
REMARK   38  A    between atoms: _87  and  _88
REMARK   39  A    between atoms: _93  and  _95
REMARK   40  A    between atoms: _95  and  _96
REMARK   41  A    between atoms: _95  and  _98
REMARK   42  A    between atoms: _98  and  _99
REMARK   43  A    between atoms: _104  and  _106
REMARK   44  A    between atoms: _106  and  _107
REMARK   45  A    between atoms: _106  and  _109
REMARK   46  A    between atoms: _109  and  _110
REMARK   47  A    between atoms: _110  and  _111
REMARK   48  A    between atoms: _111  and  _112
REMARK   49  A    between atoms: _121  and  _123
REMARK   50  A    between atoms: _123  and  _124
REMARK   51  A    between atoms: _123  and  _126
REMARK   52  A    between atoms: _126  and  _127
REMARK   53  A    between atoms: _132  and  _134
REMARK   54  A    between atoms: _134  and  _135
REMARK   55  A    between atoms: _134  and  _137
REMARK   56  A    between atoms: _137  and  _138
REMARK   57  A    between atoms: _138  and  _139
REMARK   58  A    between atoms: _139  and  _141
REMARK   59  A    between atoms: _141  and  MG_450
REMARK   60  A    between atoms: _142  and  _144
REMARK   61  A    between atoms: _144  and  _145
REMARK   62  A    between atoms: _144  and  _147
REMARK   63  A    between atoms: _147  and  _148
REMARK   64  A    between atoms: _153  and  _155
REMARK   65  A    between atoms: _155  and  _156
REMARK   66  A    between atoms: _155  and  _158
REMARK   67  A    between atoms: _158  and  _159
REMARK   68  A    between atoms: _159  and  _160
REMARK   69  A    between atoms: _162  and  _164
REMARK   70  A    between atoms: _164  and  _165
REMARK   71  A    between atoms: _164  and  _167
REMARK   72  A    between atoms: _167  and  _168
REMARK   73  A    between atoms: _173  and  _175
REMARK   74  A    between atoms: _175  and  _176
REMARK   75  A    between atoms: _175  and  _178
REMARK   76  A    between atoms: _178  and  _179
REMARK   77  A    between atoms: _179  and  _180
REMARK   78  A    between atoms: _180  and  _181
REMARK   79  A    between atoms: _181  and  MG_450
REMARK   80  A    between atoms: _183  and  _185
REMARK   81  A    between atoms: _185  and  _186
REMARK   82  A    between atoms: _185  and  _188
REMARK   83  A    between atoms: _188  and  _189
REMARK   84  A    between atoms: _189  and  _190
REMARK   85  A    between atoms: _193  and  _195
REMARK   86  A    between atoms: _195  and  _196
REMARK   87  A    between atoms: _195  and  _198
REMARK   88  A    between atoms: _198  and  _199
REMARK   89  A    between atoms: _199  and  _200
REMARK   90  A    between atoms: _202  and  _204
REMARK   91  A    between atoms: _204  and  _205
REMARK   92  A    between atoms: _204  and  _207
REMARK   93  A    between atoms: _207  and  _208
REMARK   94  A    between atoms: _213  and  _214
REMARK   95  A    between atoms: _216  and  _218
REMARK   96  A    between atoms: _218  and  _219
REMARK   97  A    between atoms: _218  and  _221
REMARK   98  A    between atoms: _221  and  _222
REMARK   99  A    between atoms: _222  and  _223
REMARK  100  A    between atoms: _223  and  _224
REMARK  101  A    between atoms: _224  and  _225
REMARK  102  A    between atoms: _229  and  _231
REMARK  103  A    between atoms: _231  and  _232
REMARK  104  A    between atoms: _231  and  _234
REMARK  105  A    between atoms: _236  and  _238
REMARK  106  A    between atoms: _238  and  _239
REMARK  107  A    between atoms: _238  and  _241
REMARK  108  A    between atoms: _241  and  _242
REMARK  109  A    between atoms: _242  and  _243
REMARK  110  A    between atoms: _246  and  _248
REMARK  111  A    between atoms: _248  and  _249
REMARK  112  A    between atoms: _248  and  _251
REMARK  113  A    between atoms: _251  and  _252
REMARK  114  A    between atoms: _257  and  _259
REMARK  115  A    between atoms: _259  and  _260
REMARK  116  A    between atoms: _263  and  _265
REMARK  117  A    between atoms: _265  and  _266
REMARK  118  A    between atoms: _265  and  _268
REMARK  119  A    between atoms: _268  and  _269
REMARK  120  A    between atoms: _269  and  _270
REMARK  121  A    between atoms: _272  and  _274
REMARK  122  A    between atoms: _274  and  _275
REMARK  123  A    between atoms: _274  and  _277
REMARK  124  A    between atoms: _277  and  _278
REMARK  125  A    between atoms: _288  and  _290
REMARK  126  A    between atoms: _290  and  _291
REMARK  127  A    between atoms: _290  and  _293
REMARK  128  A    between atoms: _293  and  _294
REMARK  129  A    between atoms: _297  and  _299
REMARK  130  A    between atoms: _299  and  _300
REMARK  131  A    between atoms: _299  and  _302
REMARK  132  A    between atoms: _302  and  _303
REMARK  133  A    between atoms: _303  and  _304
REMARK  134  A    between atoms: _309  and  _311
REMARK  135  A    between atoms: _311  and  _312
REMARK  136  A    between atoms: _311  and  _314
REMARK  137  A    between atoms: _314  and  _315
REMARK  138  A    between atoms: _318  and  _320
REMARK  139  A    between atoms: _320  and  _321
REMARK  140  A    between atoms: _320  and  _323
REMARK  141  A    between atoms: _323  and  _324
REMARK  142  A    between atoms: _324  and  _325
REMARK  143  A    between atoms: _330  and  _332
REMARK  144  A    between atoms: _332  and  _333
REMARK  145  A    between atoms: _332  and  _335
REMARK  146  A    between atoms: _335  and  _336
REMARK  147  A    between atoms: _342  and  _344
REMARK  148  A    between atoms: _344  and  _345
REMARK  149  A    between atoms: _344  and  _347
REMARK  150  A    between atoms: _349  and  _351
REMARK  151  A    between atoms: _351  and  _352
REMARK  152  A    between atoms: _351  and  _354
REMARK  153  A    between atoms: _354  and  _355
REMARK  154  A    between atoms: _355  and  _356
REMARK  155  A    between atoms: _358  and  _360
REMARK  156  A    between atoms: _360  and  _361
REMARK  157  A    between atoms: _360  and  _363
REMARK  158  A    between atoms: _363  and  _364
REMARK  159  A    between atoms: _369  and  _371
REMARK  160  A    between atoms: _371  and  _372
REMARK  161  A    between atoms: _374  and  _376
REMARK  162  A    between atoms: _376  and  _377
REMARK  163  A    between atoms: _376  and  _379
REMARK  164  A    between atoms: _382  and  _384
REMARK  165  A    between atoms: _384  and  _385
REMARK  166  A    between atoms: _384  and  _387
REMARK  167  A    between atoms: _387  and  _388
REMARK  168  A    between atoms: _391  and  _393
REMARK  169  A    between atoms: _393  and  _394
REMARK  170  A    between atoms: _393  and  _396
REMARK  171  A    between atoms: _396  and  _397
REMARK  172  A    between atoms: _399  and  _401
REMARK  173  A    between atoms: _401  and  _402
REMARK  174  A    between atoms: _401  and  _404
REMARK  175  A    between atoms: _404  and  _405
REMARK  176  A    between atoms: _415  and  _417
REMARK  177  A    between atoms: _417  and  _418
REMARK  178  A    between atoms: _417  and  _420
REMARK  179  A    between atoms: _420  and  _421
REMARK  180  A    between atoms: _423  and  _425
REMARK  181  A    between atoms: _425  and  _426
REMARK  182  A    between atoms: _425  and  _428
REMARK  183  A    between atoms: _428  and  _429
REMARK  184  A    between atoms: _429  and  _430
REMARK  185  A    between atoms: _433  and  _435
REMARK  186  A    between atoms: _435  and  _436
REMARK  187  A    between atoms: _435  and  _438
REMARK  188  A    between atoms: _438  and  _439
REMARK  189  A    between atoms: _439  and  _440
REMARK  190  A    between atoms: _440  and  _441
REMARK                            x       y       z     vdW  Elec       q    Type
REMARK                         _______ _______ _______ _____ _____    ______ ____
ROOT
ATOM      1  CA  GLU A   1       7.804  21.584  84.747  0.00  0.00    +0.134 C 
ENDROOT
BRANCH   1   2
ATOM      2  N   GLU A   1       6.529  22.151  85.194  0.00  0.00    -0.239 NA
ATOM      3  H   GLU A   1       6.169  23.006  84.724  0.00  0.00    +0.142 HD
ENDBRANCH   1   2
BRANCH   1   4
ATOM      4  C   GLU A   1       9.045  22.040  85.514  0.00  0.00    +0.224 C 
ATOM      5  O   GLU A   1      10.062  21.344  85.533  0.00  0.00    -0.287 OA
ENDBRANCH   1   4
BRANCH   1   6
ATOM      6  CB  GLU A   1       7.978  21.882  83.250  0.00  0.00    +0.037 C 
BRANCH   6   7
ATOM      7  CG  GLU A   1       9.279  21.388  82.603  0.00  0.00    +0.116 C 
BRANCH   7   8
ATOM      8  CD  GLU A   1      10.481  22.264  82.923  0.00  0.00    +0.365 C 
ATOM      9  OE2 GLU A   1      10.288  23.440  83.303  0.00  0.00    -0.246 OA
ATOM     10  OE1 GLU A   1      11.622  21.781  82.775  0.00  0.00    -0.246 OA
ENDBRANCH   7   8
ENDBRANCH   6   7
ENDBRANCH   1   6
TORSDOF 5
REMARK  Name = ../refined-set-2016/3muz/3muz_pocket.pdb
REMARK  190 active torsions:
REMARK  status: ('A' for Active; 'I' for Inactive)
REMARK    1  A    between atoms: _1  and  _3
REMARK    2  A    between atoms: _3  and  _4
REMARK    3  A    between atoms: _3  and  _6
REMARK    4  A    between atoms: _6  and  _7
REMARK    5  A    between atoms: _12  and  _13
REMARK    6  A    between atoms: _15  and  _17
REMARK    7  A    between atoms: _17  and  _18
REMARK    8  A    between atoms: _17  and  _20
REMARK    9  A    between atoms: _20  and  _21
REMARK   10  A    between atoms: _26  and  _28
REMARK   11  A    between atoms: _28  and  _29
REMARK   12  A    between atoms: _28  and  _31
REMARK   13  A    between atoms: _34  and  _36
REMARK   14  A    between atoms: _36  and  _37
REMARK   15  A    between atoms: _36  and  _39
REMARK   16  A    between atoms: _39  and  _40
REMARK   17  A    between atoms: _43  and  _45
REMARK   18  A    between atoms: _45  and  _46
REMARK   19  A    between atoms: _45  and  _48
REMARK   20  A    between atoms: _48  and  _49
REMARK   21  A    between atoms: _52  and  _54
REMARK   22  A    between atoms: _54  and  _55
REMARK   23  A    between atoms: _54  and  _57
REMARK   24  A    between atoms: _57  and  _58
REMARK   25  A    between atoms: _58  and  _59
REMARK   26  A    between atoms: _64  and  _66
REMARK   27  A    between atoms: _66  and  _67
REMARK   28  A    between atoms: _66  and  _69
REMARK   29  A    between atoms: _69  and  _70
REMARK   30  A    between atoms: _73  and  _75
REMARK   31  A    between atoms: _75  and  _76
REMARK   32  A    between atoms: _75  and  _78
REMARK   33  A    between atoms: _78  and  _79
REMARK   34  A    between atoms: _79  and  _80
REMARK   35  A    between atoms: _82  and  _84
REMARK   36  A    between atoms: _84  and  _85
REMARK   37  A    between atoms: _84  and  _87
REMARK   38  A    between atoms: _87  and  _88
REMARK   39  A    between atoms: _93  and  _95
REMARK   40  A    between atoms: _95  and  _96
REMARK   41  A    between atoms: _95  and  _98
REMARK   42  A    between atoms: _98  and  _99
REMARK   43  A    between atoms: _104  and  _106
REMARK   44  A    between atoms: _106  and  _107
REMARK   45  A    between atoms: _106  and  _109
REMARK   46  A    between atoms: _109  and  _110
REMARK   47  A    between atoms: _110  and  _111
REMARK   48  A    between atoms: _111  and  _112
REMARK   49  A    between atoms: _121  and  _123
REMARK   50  A    between atoms: _123  and  _124
REMARK   51  A    between atoms: _123  and  _126
REMARK   52  A    between atoms: _126  and  _127
REMARK   53  A    between atoms: _132  and  _134
REMARK   54  A    between atoms: _134  and  _135
REMARK   55  A    between atoms: _134  and  _137
REMARK   56  A    between atoms: _137  and  _138
REMARK   57  A    between atoms: _138  and  _139
REMARK   58  A    between atoms: _139  and  _141
REMARK   59  A    between atoms: _141  and  MG_450
REMARK   60  A    between atoms: _142  and  _144
REMARK   61  A    between atoms: _144  and  _145
REMARK   62  A    between atoms: _144  and  _147
REMARK   63  A    between atoms: _147  and  _148
REMARK   64  A    between atoms: _153  and  _155
REMARK   65  A    between atoms: _155  and  _156
REMARK   66  A    between atoms: _155  and  _158
REMARK   67  A    between atoms: _158  and  _159
REMARK   68  A    between atoms: _159  and  _160
REMARK   69  A    between atoms: _162  and  _164
REMARK   70  A    between atoms: _164  and  _165
REMARK   71  A    between atoms: _164  and  _167
REMARK   72  A    between atoms: _167  and  _168
REMARK   73  A    between atoms: _173  and  _175
REMARK   74  A    between atoms: _175  and  _176
REMARK   75  A    between atoms: _175  and  _178
REMARK   76  A    between atoms: _178  and  _179
REMARK   77  A    between atoms: _179  and  _180
REMARK   78  A    between atoms: _180  and  _181
REMARK   79  A    between atoms: _181  and  MG_450
REMARK   80  A    between atoms: _183  and  _185
REMARK   81  A    between atoms: _185  and  _186
REMARK   82  A    between atoms: _185  and  _188
REMARK   83  A    between atoms: _188  and  _189
REMARK   84  A    between atoms: _189  and  _190
REMARK   85  A    between atoms: _193  and  _195
REMARK   86  A    between atoms: _195  and  _196
REMARK   87  A    between atoms: _195  and  _198
REMARK   88  A    between atoms: _198  and  _199
REMARK   89  A    between atoms: _199  and  _200
REMARK   90  A    between atoms: _202  and  _204
REMARK   91  A    between atoms: _204  and  _205
REMARK   92  A    between atoms: _204  and  _207
REMARK   93  A    between atoms: _207  and  _208
REMARK   94  A    between atoms: _213  and  _214
REMARK   95  A    between atoms: _216  and  _218
REMARK   96  A    between atoms: _218  and  _219
REMARK   97  A    between atoms: _218  and  _221
REMARK   98  A    between atoms: _221  and  _222
REMARK   99  A    between atoms: _222  and  _223
REMARK  100  A    between atoms: _223  and  _224
REMARK  101  A    between atoms: _224  and  _225
REMARK  102  A    between atoms: _229  and  _231
REMARK  103  A    between atoms: _231  and  _232
REMARK  104  A    between atoms: _231  and  _234
REMARK  105  A    between atoms: _236  and  _238
REMARK  106  A    between atoms: _238  and  _239
REMARK  107  A    between atoms: _238  and  _241
REMARK  108  A    between atoms: _241  and  _242
REMARK  109  A    between atoms: _242  and  _243
REMARK  110  A    between atoms: _246  and  _248
REMARK  111  A    between atoms: _248  and  _249
REMARK  112  A    between atoms: _248  and  _251
REMARK  113  A    between atoms: _251  and  _252
REMARK  114  A    between atoms: _257  and  _259
REMARK  115  A    between atoms: _259  and  _260
REMARK  116  A    between atoms: _263  and  _265
REMARK  117  A    between atoms: _265  and  _266
REMARK  118  A    between atoms: _265  and  _268
REMARK  119  A    between atoms: _268  and  _269
REMARK  120  A    between atoms: _269  and  _270
REMARK  121  A    between atoms: _272  and  _274
REMARK  122  A    between atoms: _274  and  _275
REMARK  123  A    between atoms: _274  and  _277
REMARK  124  A    between atoms: _277  and  _278
REMARK  125  A    between atoms: _288  and  _290
REMARK  126  A    between atoms: _290  and  _291
REMARK  127  A    between atoms: _290  and  _293
REMARK  128  A    between atoms: _293  and  _294
REMARK  129  A    between atoms: _297  and  _299
REMARK  130  A    between atoms: _299  and  _300
REMARK  131  A    between atoms: _299  and  _302
REMARK  132  A    between atoms: _302  and  _303
REMARK  133  A    between atoms: _303  and  _304
REMARK  134  A    between atoms: _309  and  _311
REMARK  135  A    between atoms: _311  and  _312
REMARK  136  A    between atoms: _311  and  _314
REMARK  137  A    between atoms: _314  and  _315
REMARK  138  A    between atoms: _318  and  _320
REMARK  139  A    between atoms: _320  and  _321
REMARK  140  A    between atoms: _320  and  _323
REMARK  141  A    between atoms: _323  and  _324
REMARK  142  A    between atoms: _324  and  _325
REMARK  143  A    between atoms: _330  and  _332
REMARK  144  A    between atoms: _332  and  _333
REMARK  145  A    between atoms: _332  and  _335
REMARK  146  A    between atoms: _335  and  _336
REMARK  147  A    between atoms: _342  and  _344
REMARK  148  A    between atoms: _344  and  _345
REMARK  149  A    between atoms: _344  and  _347
REMARK  150  A    between atoms: _349  and  _351
REMARK  151  A    between atoms: _351  and  _352
REMARK  152  A    between atoms: _351  and  _354
REMARK  153  A    between atoms: _354  and  _355
REMARK  154  A    between atoms: _355  and  _356
REMARK  155  A    between atoms: _358  and  _360
REMARK  156  A    between atoms: _360  and  _361
REMARK  157  A    between atoms: _360  and  _363
REMARK  158  A    between atoms: _363  and  _364
REMARK  159  A    between atoms: _369  and  _371
REMARK  160  A    between atoms: _371  and  _372
REMARK  161  A    between atoms: _374  and  _376
REMARK  162  A    between atoms: _376  and  _377
REMARK  163  A    between atoms: _376  and  _379
REMARK  164  A    between atoms: _382  and  _384
REMARK  165  A    between atoms: _384  and  _385
REMARK  166  A    between atoms: _384  and  _387
REMARK  167  A    between atoms: _387  and  _388
REMARK  168  A    between atoms: _391  and  _393
REMARK  169  A    between atoms: _393  and  _394
REMARK  170  A    between atoms: _393  and  _396
REMARK  171  A    between atoms: _396  and  _397
REMARK  172  A    between atoms: _399  and  _401
REMARK  173  A    between atoms: _401  and  _402
REMARK  174  A    between atoms: _401  and  _404
REMARK  175  A    between atoms: _404  and  _405
REMARK  176  A    between atoms: _415  and  _417
REMARK  177  A    between atoms: _417  and  _418
REMARK  178  A    between atoms: _417  and  _420
REMARK  179  A    between atoms: _420  and  _421
REMARK  180  A    between atoms: _423  and  _425
REMARK  181  A    between atoms: _425  and  _426
REMARK  182  A    between atoms: _425  and  _428
REMARK  183  A    between atoms: _428  and  _429
REMARK  184  A    between atoms: _429  and  _430
REMARK  185  A    between atoms: _433  and  _435
REMARK  186  A    between atoms: _435  and  _436
REMARK  187  A    between atoms: _435  and  _438
REMARK  188  A    between atoms: _438  and  _439
REMARK  189  A    between atoms: _439  and  _440
REMARK  190  A    between atoms: _440  and  _441
REMARK                            x       y       z     vdW  Elec       q    Type
REMARK                         _______ _______ _______ _____ _____    ______ ____
ROOT
ATOM      1  CA  TYR A   2      12.542  18.766  75.152  0.00  0.00    +0.141 C 
ENDROOT
BRANCH   1   4
ATOM      2  C   MET A   1      11.744  19.703  77.273  0.00  0.00    +0.238 C 
ATOM      3  O   MET A   1      12.866  19.767  77.785  0.00  0.00    -0.274 OA
ATOM      4  N   TYR A   2      11.506  19.215  76.061  0.00  0.00    -0.298 N 
ATOM      5  H   TYR A   2      10.517  19.151  75.745  0.00  0.00    +0.150 HD
BRANCH   2   6
ATOM      6  CA  MET A   1      10.503  20.137  78.035  0.00  0.00    +0.146 C 
BRANCH   6   7
ATOM      7  N   MET A   1      10.455  19.391  79.276  0.00  0.00    -0.238 NA
ATOM      8  H   MET A   1      11.203  19.516  79.988  0.00  0.00    +0.142 HD
ENDBRANCH   6   7
BRANCH   6   9
ATOM      9  CB  MET A   1      10.504  21.658  78.272  0.00  0.00    +0.038 C 
BRANCH   9  10
ATOM     10  CG  MET A   1      11.623  22.215  79.137  0.00  0.00    +0.060 C 
BRANCH  10  11
ATOM     11  SD  MET A   1      11.620  24.050  79.139  0.00  0.00    -0.139 S 
ATOM     12  CE  MET A   1      10.199  24.412  80.121  0.00  0.00    +0.069 C 
ENDBRANCH  10  11
ENDBRANCH   9  10
ENDBRANCH   6   9
ENDBRANCH   2   6
ENDBRANCH   1   4
BRANCH   1  13
ATOM     13  C   TYR A   2      13.322  17.533  75.608  0.00  0.00    +0.227 C 
ATOM     14  O   TYR A   2      14.486  17.363  75.246  0.00  0.00    -0.286 OA
ENDBRANCH   1  13
BRANCH   1  15
ATOM     15  CB  TYR A   2      13.488  19.935  74.844  0.00  0.00    +0.054 C 
BRANCH  15  16
ATOM     16  CG  TYR A   2      12.730  21.208  74.517  0.00  0.00    -0.020 A 
ATOM     17  CD2 TYR A   2      12.569  22.216  75.473  0.00  0.00    -0.001 A 
ATOM     18  CE2 TYR A   2      11.802  23.352  75.200  0.00  0.00    +0.036 A 
ATOM     19  CZ  TYR A   2      11.193  23.478  73.958  0.00  0.00    +0.134 A 
ATOM     20  CE1 TYR A   2      11.346  22.493  72.994  0.00  0.00    +0.036 A 
ATOM     21  CD1 TYR A   2      12.111  21.369  73.277  0.00  0.00    -0.001 A 
BRANCH  19  22
ATOM     22  OH  TYR A   2      10.417  24.572  73.679  0.00  0.00    -0.506 OA
ATOM     23  HH  TYR A   2      10.409  25.178  74.462  0.00  0.00    +0.292 HD
ENDBRANCH  19  22
ENDBRANCH  15  16
ENDBRANCH   1  15
TORSDOF 10
REMARK  Name = ../refined-set-2016/3muz/3muz_pocket.pdb
REMARK  190 active torsions:
REMARK  status: ('A' for Active; 'I' for Inactive)
REMARK    1  A    between atoms: _1  and  _3
REMARK    2  A    between atoms: _3  and  _4
REMARK    3  A    between atoms: _3  and  _6
REMARK    4  A    between atoms: _6  and  _7
REMARK    5  A    between atoms: _12  and  _13
REMARK    6  A    between atoms: _15  and  _17
REMARK    7  A    between atoms: _17  and  _18
REMARK    8  A    between atoms: _17  and  _20
REMARK    9  A    between atoms: _20  and  _21
REMARK   10  A    between atoms: _26  and  _28
REMARK   11  A    between atoms: _28  and  _29
REMARK   12  A    between atoms: _28  and  _31
REMARK   13  A    between atoms: _34  and  _36
REMARK   14  A    between atoms: _36  and  _37
REMARK   15  A    between atoms: _36  and  _39
REMARK   16  A    between atoms: _39  and  _40
REMARK   17  A    between atoms: _43  and  _45
REMARK   18  A    between atoms: _45  and  _46
REMARK   19  A    between atoms: _45  and  _48
REMARK   20  A    between atoms: _48  and  _49
REMARK   21  A    between atoms: _52  and  _54
REMARK   22  A    between atoms: _54  and  _55
REMARK   23  A    between atoms: _54  and  _57
REMARK   24  A    between atoms: _57  and  _58
REMARK   25  A    between atoms: _58  and  _59
REMARK   26  A    between atoms: _64  and  _66
REMARK   27  A    between atoms: _66  and  _67
REMARK   28  A    between atoms: _66  and  _69
REMARK   29  A    between atoms: _69  and  _70
REMARK   30  A    between atoms: _73  and  _75
REMARK   31  A    between atoms: _75  and  _76
REMARK   32  A    between atoms: _75  and  _78
REMARK   33  A    between atoms: _78  and  _79
REMARK   34  A    between atoms: _79  and  _80
REMARK   35  A    between atoms: _82  and  _84
REMARK   36  A    between atoms: _84  and  _85
REMARK   37  A    between atoms: _84  and  _87
REMARK   38  A    between atoms: _87  and  _88
REMARK   39  A    between atoms: _93  and  _95
REMARK   40  A    between atoms: _95  and  _96
REMARK   41  A    between atoms: _95  and  _98
REMARK   42  A    between atoms: _98  and  _99
REMARK   43  A    between atoms: _104  and  _106
REMARK   44  A    between atoms: _106  and  _107
REMARK   45  A    between atoms: _106  and  _109
REMARK   46  A    between atoms: _109  and  _110
REMARK   47  A    between atoms: _110  and  _111
REMARK   48  A    between atoms: _111  and  _112
REMARK   49  A    between atoms: _121  and  _123
REMARK   50  A    between atoms: _123  and  _124
REMARK   51  A    between atoms: _123  and  _126
REMARK   52  A    between atoms: _126  and  _127
REMARK   53  A    between atoms: _132  and  _134
REMARK   54  A    between atoms: _134  and  _135
REMARK   55  A    between atoms: _134  and  _137
REMARK   56  A    between atoms: _137  and  _138
REMARK   57  A    between atoms: _138  and  _139
REMARK   58  A    between atoms: _139  and  _141
REMARK   59  A    between atoms: _141  and  MG_450
REMARK   60  A    between atoms: _142  and  _144
REMARK   61  A    between atoms: _144  and  _145
REMARK   62  A    between atoms: _144  and  _147
REMARK   63  A    between atoms: _147  and  _148
REMARK   64  A    between atoms: _153  and  _155
REMARK   65  A    between atoms: _155  and  _156
REMARK   66  A    between atoms: _155  and  _158
REMARK   67  A    between atoms: _158  and  _159
REMARK   68  A    between atoms: _159  and  _160
REMARK   69  A    between atoms: _162  and  _164
REMARK   70  A    between atoms: _164  and  _165
REMARK   71  A    between atoms: _164  and  _167
REMARK   72  A    between atoms: _167  and  _168
REMARK   73  A    between atoms: _173  and  _175
REMARK   74  A    between atoms: _175  and  _176
REMARK   75  A    between atoms: _175  and  _178
REMARK   76  A    between atoms: _178  and  _179
REMARK   77  A    between atoms: _179  and  _180
REMARK   78  A    between atoms: _180  and  _181
REMARK   79  A    between atoms: _181  and  MG_450
REMARK   80  A    between atoms: _183  and  _185
REMARK   81  A    between atoms: _185  and  _186
REMARK   82  A    between atoms: _185  and  _188
REMARK   83  A    between atoms: _188  and  _189
REMARK   84  A    between atoms: _189  and  _190
REMARK   85  A    between atoms: _193  and  _195
REMARK   86  A    between atoms: _195  and  _196
REMARK   87  A    between atoms: _195  and  _198
REMARK   88  A    between atoms: _198  and  _199
REMARK   89  A    between atoms: _199  and  _200
REMARK   90  A    between atoms: _202  and  _204
REMARK   91  A    between atoms: _204  and  _205
REMARK   92  A    between atoms: _204  and  _207
REMARK   93  A    between atoms: _207  and  _208
REMARK   94  A    between atoms: _213  and  _214
REMARK   95  A    between atoms: _216  and  _218
REMARK   96  A    between atoms: _218  and  _219
REMARK   97  A    between atoms: _218  and  _221
REMARK   98  A    between atoms: _221  and  _222
REMARK   99  A    between atoms: _222  and  _223
REMARK  100  A    between atoms: _223  and  _224
REMARK  101  A    between atoms: _224  and  _225
REMARK  102  A    between atoms: _229  and  _231
REMARK  103  A    between atoms: _231  and  _232
REMARK  104  A    between atoms: _231  and  _234
REMARK  105  A    between atoms: _236  and  _238
REMARK  106  A    between atoms: _238  and  _239
REMARK  107  A    between atoms: _238  and  _241
REMARK  108  A    between atoms: _241  and  _242
REMARK  109  A    between atoms: _242  and  _243
REMARK  110  A    between atoms: _246  and  _248
REMARK  111  A    between atoms: _248  and  _249
REMARK  112  A    between atoms: _248  and  _251
REMARK  113  A    between atoms: _251  and  _252
REMARK  114  A    between atoms: _257  and  _259
REMARK  115  A    between atoms: _259  and  _260
REMARK  116  A    between atoms: _263  and  _265
REMARK  117  A    between atoms: _265  and  _266
REMARK  118  A    between atoms: _265  and  _268
REMARK  119  A    between atoms: _268  and  _269
REMARK  120  A    between atoms: _269  and  _270
REMARK  121  A    between atoms: _272  and  _274
REMARK  122  A    between atoms: _274  and  _275
REMARK  123  A    between atoms: _274  and  _277
REMARK  124  A    between atoms: _277  and  _278
REMARK  125  A    between atoms: _288  and  _290
REMARK  126  A    between atoms: _290  and  _291
REMARK  127  A    between atoms: _290  and  _293
REMARK  128  A    between atoms: _293  and  _294
REMARK  129  A    between atoms: _297  and  _299
REMARK  130  A    between atoms: _299  and  _300
REMARK  131  A    between atoms: _299  and  _302
REMARK  132  A    between atoms: _302  and  _303
REMARK  133  A    between atoms: _303  and  _304
REMARK  134  A    between atoms: _309  and  _311
REMARK  135  A    between atoms: _311  and  _312
REMARK  136  A    between atoms: _311  and  _314
REMARK  137  A    between atoms: _314  and  _315
REMARK  138  A    between atoms: _318  and  _320
REMARK  139  A    between atoms: _320  and  _321
REMARK  140  A    between atoms: _320  and  _323
REMARK  141  A    between atoms: _323  and  _324
REMARK  142  A    between atoms: _324  and  _325
REMARK  143  A    between atoms: _330  and  _332
REMARK  144  A    between atoms: _332  and  _333
REMARK  145  A    between atoms: _332  and  _335
REMARK  146  A    between atoms: _335  and  _336
REMARK  147  A    between atoms: _342  and  _344
REMARK  148  A    between atoms: _344  and  _345
REMARK  149  A    between atoms: _344  and  _347
REMARK  150  A    between atoms: _349  and  _351
REMARK  151  A    between atoms: _351  and  _352
REMARK  152  A    between atoms: _351  and  _354
REMARK  153  A    between atoms: _354  and  _355
REMARK  154  A    between atoms: _355  and  _356
REMARK  155  A    between atoms: _358  and  _360
REMARK  156  A    between atoms: _360  and  _361
REMARK  157  A    between atoms: _360  and  _363
REMARK  158  A    between atoms: _363  and  _364
REMARK  159  A    between atoms: _369  and  _371
REMARK  160  A    between atoms: _371  and  _372
REMARK  161  A    between atoms: _374  and  _376
REMARK  162  A    between atoms: _376  and  _377
REMARK  163  A    between atoms: _376  and  _379
REMARK  164  A    between atoms: _382  and  _384
REMARK  165  A    between atoms: _384  and  _385
REMARK  166  A    between atoms: _384  and  _387
REMARK  167  A    between atoms: _387  and  _388
REMARK  168  A    between atoms: _391  and  _393
REMARK  169  A    between atoms: _393  and  _394
REMARK  170  A    between atoms: _393  and  _396
REMARK  171  A    between atoms: _396  and  _397
REMARK  172  A    between atoms: _399  and  _401
REMARK  173  A    between atoms: _401  and  _402
REMARK  174  A    between atoms: _401  and  _404
REMARK  175  A    between atoms: _404  and  _405
REMARK  176  A    between atoms: _415  and  _417
REMARK  177  A    between atoms: _417  and  _418
REMARK  178  A    between atoms: _417  and  _420
REMARK  179  A    between atoms: _420  and  _421
REMARK  180  A    between atoms: _423  and  _425
REMARK  181  A    between atoms: _425  and  _426
REMARK  182  A    between atoms: _425  and  _428
REMARK  183  A    between atoms: _428  and  _429
REMARK  184  A    between atoms: _429  and  _430
REMARK  185  A    between atoms: _433  and  _435
REMARK  186  A    between atoms: _435  and  _436
REMARK  187  A    between atoms: _435  and  _438
REMARK  188  A    between atoms: _438  and  _439
REMARK  189  A    between atoms: _439  and  _440
REMARK  190  A    between atoms: _440  and  _441
REMARK                            x       y       z     vdW  Elec       q    Type
REMARK                         _______ _______ _______ _____ _____    ______ ____
ROOT
ATOM      1  CG  LYS A   1      15.917  17.737  80.188  0.00  0.00    -0.000 C 
ENDROOT
BRANCH   1   2
ATOM      2  CB  LYS A   1      16.185  16.273  79.893  0.00  0.00    +0.025 C 
BRANCH   2   3
ATOM      3  CA  LYS A   1      16.167  15.325  81.098  0.00  0.00    +0.133 C 
BRANCH   3   4
ATOM      4  N   LYS A   1      17.282  15.558  82.008  0.00  0.00    -0.239 NA
ATOM      5  H   LYS A   1      18.251  15.576  81.631  0.00  0.00    +0.142 HD
ENDBRANCH   3   4
BRANCH   3   6
ATOM      6  C   LYS A   1      16.393  13.905  80.605  0.00  0.00    +0.224 C 
ATOM      7  O   LYS A   1      17.099  13.686  79.626  0.00  0.00    -0.287 OA
ENDBRANCH   3   6
ENDBRANCH   2   3
ENDBRANCH   1   2
BRANCH   1   8
ATOM      8  CD  LYS A   1      15.782  18.512  78.873  0.00  0.00    -0.024 C 
BRANCH   8   9
ATOM      9  CE  LYS A   1      15.732  20.019  79.097  0.00  0.00    -0.086 C 
BRANCH   9  10
ATOM     10  NZ  LYS A   1      14.645  20.402  80.031  0.00  0.00    +0.380 N 
ATOM     11  HZ1 LYS A   1      14.800  19.940  80.950  0.00  0.00    -0.089 HD
ATOM     12  HZ2 LYS A   1      14.645  21.434  80.156  0.00  0.00    -0.089 HD
ATOM     13  HZ3 LYS A   1      13.730  20.099  79.639  0.00  0.00    -0.089 HD
ENDBRANCH   9  10
ENDBRANCH   8   9
ENDBRANCH   1   8
TORSDOF 7
REMARK  Name = ../refined-set-2016/3muz/3muz_pocket.pdb
REMARK  190 active torsions:
REMARK  status: ('A' for Active; 'I' for Inactive)
REMARK    1  A    between atoms: _1  and  _3
REMARK    2  A    between atoms: _3  and  _4
REMARK    3  A    between atoms: _3  and  _6
REMARK    4  A    between atoms: _6  and  _7
REMARK    5  A    between atoms: _12  and  _13
REMARK    6  A    between atoms: _15  and  _17
REMARK    7  A    between atoms: _17  and  _18
REMARK    8  A    between atoms: _17  and  _20
REMARK    9  A    between atoms: _20  and  _21
REMARK   10  A    between atoms: _26  and  _28
REMARK   11  A    between atoms: _28  and  _29
REMARK   12  A    between atoms: _28  and  _31
REMARK   13  A    between atoms: _34  and  _36
REMARK   14  A    between atoms: _36  and  _37
REMARK   15  A    between atoms: _36  and  _39
REMARK   16  A    between atoms: _39  and  _40
REMARK   17  A    between atoms: _43  and  _45
REMARK   18  A    between atoms: _45  and  _46
REMARK   19  A    between atoms: _45  and  _48
REMARK   20  A    between atoms: _48  and  _49
REMARK   21  A    between atoms: _52  and  _54
REMARK   22  A    between atoms: _54  and  _55
REMARK   23  A    between atoms: _54  and  _57
REMARK   24  A    between atoms: _57  and  _58
REMARK   25  A    between atoms: _58  and  _59
REMARK   26  A    between atoms: _64  and  _66
REMARK   27  A    between atoms: _66  and  _67
REMARK   28  A    between atoms: _66  and  _69
REMARK   29  A    between atoms: _69  and  _70
REMARK   30  A    between atoms: _73  and  _75
REMARK   31  A    between atoms: _75  and  _76
REMARK   32  A    between atoms: _75  and  _78
REMARK   33  A    between atoms: _78  and  _79
REMARK   34  A    between atoms: _79  and  _80
REMARK   35  A    between atoms: _82  and  _84
REMARK   36  A    between atoms: _84  and  _85
REMARK   37  A    between atoms: _84  and  _87
REMARK   38  A    between atoms: _87  and  _88
REMARK   39  A    between atoms: _93  and  _95
REMARK   40  A    between atoms: _95  and  _96
REMARK   41  A    between atoms: _95  and  _98
REMARK   42  A    between atoms: _98  and  _99
REMARK   43  A    between atoms: _104  and  _106
REMARK   44  A    between atoms: _106  and  _107
REMARK   45  A    between atoms: _106  and  _109
REMARK   46  A    between atoms: _109  and  _110
REMARK   47  A    between atoms: _110  and  _111
REMARK   48  A    between atoms: _111  and  _112
REMARK   49  A    between atoms: _121  and  _123
REMARK   50  A    between atoms: _123  and  _124
REMARK   51  A    between atoms: _123  and  _126
REMARK   52  A    between atoms: _126  and  _127
REMARK   53  A    between atoms: _132  and  _134
REMARK   54  A    between atoms: _134  and  _135
REMARK   55  A    between atoms: _134  and  _137
REMARK   56  A    between atoms: _137  and  _138
REMARK   57  A    between atoms: _138  and  _139
REMARK   58  A    between atoms: _139  and  _141
REMARK   59  A    between atoms: _141  and  MG_450
REMARK   60  A    between atoms: _142  and  _144
REMARK   61  A    between atoms: _144  and  _145
REMARK   62  A    between atoms: _144  and  _147
REMARK   63  A    between atoms: _147  and  _148
REMARK   64  A    between atoms: _153  and  _155
REMARK   65  A    between atoms: _155  and  _156
REMARK   66  A    between atoms: _155  and  _158
REMARK   67  A    between atoms: _158  and  _159
REMARK   68  A    between atoms: _159  and  _160
REMARK   69  A    between atoms: _162  and  _164
REMARK   70  A    between atoms: _164  and  _165
REMARK   71  A    between atoms: _164  and  _167
REMARK   72  A    between atoms: _167  and  _168
REMARK   73  A    between atoms: _173  and  _175
REMARK   74  A    between atoms: _175  and  _176
REMARK   75  A    between atoms: _175  and  _178
REMARK   76  A    between atoms: _178  and  _179
REMARK   77  A    between atoms: _179  and  _180
REMARK   78  A    between atoms: _180  and  _181
REMARK   79  A    between atoms: _181  and  MG_450
REMARK   80  A    between atoms: _183  and  _185
REMARK   81  A    between atoms: _185  and  _186
REMARK   82  A    between atoms: _185  and  _188
REMARK   83  A    between atoms: _188  and  _189
REMARK   84  A    between atoms: _189  and  _190
REMARK   85  A    between atoms: _193  and  _195
REMARK   86  A    between atoms: _195  and  _196
REMARK   87  A    between atoms: _195  and  _198
REMARK   88  A    between atoms: _198  and  _199
REMARK   89  A    between atoms: _199  and  _200
REMARK   90  A    between atoms: _202  and  _204
REMARK   91  A    between atoms: _204  and  _205
REMARK   92  A    between atoms: _204  and  _207
REMARK   93  A    between atoms: _207  and  _208
REMARK   94  A    between atoms: _213  and  _214
REMARK   95  A    between atoms: _216  and  _218
REMARK   96  A    between atoms: _218  and  _219
REMARK   97  A    between atoms: _218  and  _221
REMARK   98  A    between atoms: _221  and  _222
REMARK   99  A    between atoms: _222  and  _223
REMARK  100  A    between atoms: _223  and  _224
REMARK  101  A    between atoms: _224  and  _225
REMARK  102  A    between atoms: _229  and  _231
REMARK  103  A    between atoms: _231  and  _232
REMARK  104  A    between atoms: _231  and  _234
REMARK  105  A    between atoms: _236  and  _238
REMARK  106  A    between atoms: _238  and  _239
REMARK  107  A    between atoms: _238  and  _241
REMARK  108  A    between atoms: _241  and  _242
REMARK  109  A    between atoms: _242  and  _243
REMARK  110  A    between atoms: _246  and  _248
REMARK  111  A    between atoms: _248  and  _249
REMARK  112  A    between atoms: _248  and  _251
REMARK  113  A    between atoms: _251  and  _252
REMARK  114  A    between atoms: _257  and  _259
REMARK  115  A    between atoms: _259  and  _260
REMARK  116  A    between atoms: _263  and  _265
REMARK  117  A    between atoms: _265  and  _266
REMARK  118  A    between atoms: _265  and  _268
REMARK  119  A    between atoms: _268  and  _269
REMARK  120  A    between atoms: _269  and  _270
REMARK  121  A    between atoms: _272  and  _274
REMARK  122  A    between atoms: _274  and  _275
REMARK  123  A    between atoms: _274  and  _277
REMARK  124  A    between atoms: _277  and  _278
REMARK  125  A    between atoms: _288  and  _290
REMARK  126  A    between atoms: _290  and  _291
REMARK  127  A    between atoms: _290  and  _293
REMARK  128  A    between atoms: _293  and  _294
REMARK  129  A    between atoms: _297  and  _299
REMARK  130  A    between atoms: _299  and  _300
REMARK  131  A    between atoms: _299  and  _302
REMARK  132  A    between atoms: _302  and  _303
REMARK  133  A    between atoms: _303  and  _304
REMARK  134  A    between atoms: _309  and  _311
REMARK  135  A    between atoms: _311  and  _312
REMARK  136  A    between atoms: _311  and  _314
REMARK  137  A    between atoms: _314  and  _315
REMARK  138  A    between atoms: _318  and  _320
REMARK  139  A    between atoms: _320  and  _321
REMARK  140  A    between atoms: _320  and  _323
REMARK  141  A    between atoms: _323  and  _324
REMARK  142  A    between atoms: _324  and  _325
REMARK  143  A    between atoms: _330  and  _332
REMARK  144  A    between atoms: _332  and  _333
REMARK  145  A    between atoms: _332  and  _335
REMARK  146  A    between atoms: _335  and  _336
REMARK  147  A    between atoms: _342  and  _344
REMARK  148  A    between atoms: _344  and  _345
REMARK  149  A    between atoms: _344  and  _347
REMARK  150  A    between atoms: _349  and  _351
REMARK  151  A    between atoms: _351  and  _352
REMARK  152  A    between atoms: _351  and  _354
REMARK  153  A    between atoms: _354  and  _355
REMARK  154  A    between atoms: _355  and  _356
REMARK  155  A    between atoms: _358  and  _360
REMARK  156  A    between atoms: _360  and  _361
REMARK  157  A    between atoms: _360  and  _363
REMARK  158  A    between atoms: _363  and  _364
REMARK  159  A    between atoms: _369  and  _371
REMARK  160  A    between atoms: _371  and  _372
REMARK  161  A    between atoms: _374  and  _376
REMARK  162  A    between atoms: _376  and  _377
REMARK  163  A    between atoms: _376  and  _379
REMARK  164  A    between atoms: _382  and  _384
REMARK  165  A    between atoms: _384  and  _385
REMARK  166  A    between atoms: _384  and  _387
REMARK  167  A    between atoms: _387  and  _388
REMARK  168  A    between atoms: _391  and  _393
REMARK  169  A    between atoms: _393  and  _394
REMARK  170  A    between atoms: _393  and  _396
REMARK  171  A    between atoms: _396  and  _397
REMARK  172  A    between atoms: _399  and  _401
REMARK  173  A    between atoms: _401  and  _402
REMARK  174  A    between atoms: _401  and  _404
REMARK  175  A    between atoms: _404  and  _405
REMARK  176  A    between atoms: _415  and  _417
REMARK  177  A    between atoms: _417  and  _418
REMARK  178  A    between atoms: _417  and  _420
REMARK  179  A    between atoms: _420  and  _421
REMARK  180  A    between atoms: _423  and  _425
REMARK  181  A    between atoms: _425  and  _426
REMARK  182  A    between atoms: _425  and  _428
REMARK  183  A    between atoms: _428  and  _429
REMARK  184  A    between atoms: _429  and  _430
REMARK  185  A    between atoms: _433  and  _435
REMARK  186  A    between atoms: _435  and  _436
REMARK  187  A    between atoms: _435  and  _438
REMARK  188  A    between atoms: _438  and  _439
REMARK  189  A    between atoms: _439  and  _440
REMARK  190  A    between atoms: _440  and  _441
REMARK                            x       y       z     vdW  Elec       q    Type
REMARK                         _______ _______ _______ _____ _____    ______ ____
ROOT
ATOM      1  C   CYS A   1       5.427  21.234  76.849  0.00  0.00    +0.239 C 
ATOM      2  N   GLU A   2       6.604  20.821  76.377  0.00  0.00    -0.298 N 
ATOM      3  H   GLU A   2       7.093  20.052  76.879  0.00  0.00    +0.150 HD
ATOM      4  O   CYS A   1       4.766  22.134  76.333  0.00  0.00    -0.274 OA
ENDROOT
BRANCH   1   5
ATOM      5  CA  CYS A   1       4.911  20.496  78.088  0.00  0.00    +0.156 C 
BRANCH   5   6
ATOM      6  N   CYS A   1       5.567  19.195  78.165  0.00  0.00    -0.237 NA
ATOM      7  H   CYS A   1       6.338  19.038  78.845  0.00  0.00    +0.142 HD
ENDBRANCH   5   6
BRANCH   5   8
ATOM      8  CB  CYS A   1       5.151  21.323  79.368  0.00  0.00    +0.095 C 
ATOM      9  SG  CYS A   1       6.835  21.920  79.683  0.00  0.00    -0.080 S 
ENDBRANCH   5   8
ENDBRANCH   1   5
BRANCH   2  10
ATOM     10  CA  GLU A   2       7.245  21.392  75.190  0.00  0.00    +0.137 C 
BRANCH  10  11
ATOM     11  C   GLU A   2       8.195  20.366  74.563  0.00  0.00    +0.227 C 
ATOM     12  O   GLU A   2       9.009  19.753  75.259  0.00  0.00    -0.286 OA
ENDBRANCH  10  11
BRANCH  10  13
ATOM     13  CB  GLU A   2       8.053  22.653  75.548  0.00  0.00    +0.039 C 
BRANCH  13  14
ATOM     14  CG  GLU A   2       7.246  23.753  76.225  0.00  0.00    +0.116 C 
BRANCH  14  15
ATOM     15  CD  GLU A   2       8.087  24.966  76.607  0.00  0.00    +0.365 C 
ATOM     16  OE2 GLU A   2       7.604  25.784  77.421  0.00  0.00    -0.246 OA
ATOM     17  OE1 GLU A   2       9.219  25.106  76.093  0.00  0.00    -0.246 OA
ENDBRANCH  14  15
ENDBRANCH  13  14
ENDBRANCH  10  13
ENDBRANCH   2  10
TORSDOF 8
REMARK  Name = ../refined-set-2016/3muz/3muz_pocket.pdb
REMARK  190 active torsions:
REMARK  status: ('A' for Active; 'I' for Inactive)
REMARK    1  A    between atoms: _1  and  _3
REMARK    2  A    between atoms: _3  and  _4
REMARK    3  A    between atoms: _3  and  _6
REMARK    4  A    between atoms: _6  and  _7
REMARK    5  A    between atoms: _12  and  _13
REMARK    6  A    between atoms: _15  and  _17
REMARK    7  A    between atoms: _17  and  _18
REMARK    8  A    between atoms: _17  and  _20
REMARK    9  A    between atoms: _20  and  _21
REMARK   10  A    between atoms: _26  and  _28
REMARK   11  A    between atoms: _28  and  _29
REMARK   12  A    between atoms: _28  and  _31
REMARK   13  A    between atoms: _34  and  _36
REMARK   14  A    between atoms: _36  and  _37
REMARK   15  A    between atoms: _36  and  _39
REMARK   16  A    between atoms: _39  and  _40
REMARK   17  A    between atoms: _43  and  _45
REMARK   18  A    between atoms: _45  and  _46
REMARK   19  A    between atoms: _45  and  _48
REMARK   20  A    between atoms: _48  and  _49
REMARK   21  A    between atoms: _52  and  _54
REMARK   22  A    between atoms: _54  and  _55
REMARK   23  A    between atoms: _54  and  _57
REMARK   24  A    between atoms: _57  and  _58
REMARK   25  A    between atoms: _58  and  _59
REMARK   26  A    between atoms: _64  and  _66
REMARK   27  A    between atoms: _66  and  _67
REMARK   28  A    between atoms: _66  and  _69
REMARK   29  A    between atoms: _69  and  _70
REMARK   30  A    between atoms: _73  and  _75
REMARK   31  A    between atoms: _75  and  _76
REMARK   32  A    between atoms: _75  and  _78
REMARK   33  A    between atoms: _78  and  _79
REMARK   34  A    between atoms: _79  and  _80
REMARK   35  A    between atoms: _82  and  _84
REMARK   36  A    between atoms: _84  and  _85
REMARK   37  A    between atoms: _84  and  _87
REMARK   38  A    between atoms: _87  and  _88
REMARK   39  A    between atoms: _93  and  _95
REMARK   40  A    between atoms: _95  and  _96
REMARK   41  A    between atoms: _95  and  _98
REMARK   42  A    between atoms: _98  and  _99
REMARK   43  A    between atoms: _104  and  _106
REMARK   44  A    between atoms: _106  and  _107
REMARK   45  A    between atoms: _106  and  _109
REMARK   46  A    between atoms: _109  and  _110
REMARK   47  A    between atoms: _110  and  _111
REMARK   48  A    between atoms: _111  and  _112
REMARK   49  A    between atoms: _121  and  _123
REMARK   50  A    between atoms: _123  and  _124
REMARK   51  A    between atoms: _123  and  _126
REMARK   52  A    between atoms: _126  and  _127
REMARK   53  A    between atoms: _132  and  _134
REMARK   54  A    between atoms: _134  and  _135
REMARK   55  A    between atoms: _134  and  _137
REMARK   56  A    between atoms: _137  and  _138
REMARK   57  A    between atoms: _138  and  _139
REMARK   58  A    between atoms: _139  and  _141
REMARK   59  A    between atoms: _141  and  MG_450
REMARK   60  A    between atoms: _142  and  _144
REMARK   61  A    between atoms: _144  and  _145
REMARK   62  A    between atoms: _144  and  _147
REMARK   63  A    between atoms: _147  and  _148
REMARK   64  A    between atoms: _153  and  _155
REMARK   65  A    between atoms: _155  and  _156
REMARK   66  A    between atoms: _155  and  _158
REMARK   67  A    between atoms: _158  and  _159
REMARK   68  A    between atoms: _159  and  _160
REMARK   69  A    between atoms: _162  and  _164
REMARK   70  A    between atoms: _164  and  _165
REMARK   71  A    between atoms: _164  and  _167
REMARK   72  A    between atoms: _167  and  _168
REMARK   73  A    between atoms: _173  and  _175
REMARK   74  A    between atoms: _175  and  _176
REMARK   75  A    between atoms: _175  and  _178
REMARK   76  A    between atoms: _178  and  _179
REMARK   77  A    between atoms: _179  and  _180
REMARK   78  A    between atoms: _180  and  _181
REMARK   79  A    between atoms: _181  and  MG_450
REMARK   80  A    between atoms: _183  and  _185
REMARK   81  A    between atoms: _185  and  _186
REMARK   82  A    between atoms: _185  and  _188
REMARK   83  A    between atoms: _188  and  _189
REMARK   84  A    between atoms: _189  and  _190
REMARK   85  A    between atoms: _193  and  _195
REMARK   86  A    between atoms: _195  and  _196
REMARK   87  A    between atoms: _195  and  _198
REMARK   88  A    between atoms: _198  and  _199
REMARK   89  A    between atoms: _199  and  _200
REMARK   90  A    between atoms: _202  and  _204
REMARK   91  A    between atoms: _204  and  _205
REMARK   92  A    between atoms: _204  and  _207
REMARK   93  A    between atoms: _207  and  _208
REMARK   94  A    between atoms: _213  and  _214
REMARK   95  A    between atoms: _216  and  _218
REMARK   96  A    between atoms: _218  and  _219
REMARK   97  A    between atoms: _218  and  _221
REMARK   98  A    between atoms: _221  and  _222
REMARK   99  A    between atoms: _222  and  _223
REMARK  100  A    between atoms: _223  and  _224
REMARK  101  A    between atoms: _224  and  _225
REMARK  102  A    between atoms: _229  and  _231
REMARK  103  A    between atoms: _231  and  _232
REMARK  104  A    between atoms: _231  and  _234
REMARK  105  A    between atoms: _236  and  _238
REMARK  106  A    between atoms: _238  and  _239
REMARK  107  A    between atoms: _238  and  _241
REMARK  108  A    between atoms: _241  and  _242
REMARK  109  A    between atoms: _242  and  _243
REMARK  110  A    between atoms: _246  and  _248
REMARK  111  A    between atoms: _248  and  _249
REMARK  112  A    between atoms: _248  and  _251
REMARK  113  A    between atoms: _251  and  _252
REMARK  114  A    between atoms: _257  and  _259
REMARK  115  A    between atoms: _259  and  _260
REMARK  116  A    between atoms: _263  and  _265
REMARK  117  A    between atoms: _265  and  _266
REMARK  118  A    between atoms: _265  and  _268
REMARK  119  A    between atoms: _268  and  _269
REMARK  120  A    between atoms: _269  and  _270
REMARK  121  A    between atoms: _272  and  _274
REMARK  122  A    between atoms: _274  and  _275
REMARK  123  A    between atoms: _274  and  _277
REMARK  124  A    between atoms: _277  and  _278
REMARK  125  A    between atoms: _288  and  _290
REMARK  126  A    between atoms: _290  and  _291
REMARK  127  A    between atoms: _290  and  _293
REMARK  128  A    between atoms: _293  and  _294
REMARK  129  A    between atoms: _297  and  _299
REMARK  130  A    between atoms: _299  and  _300
REMARK  131  A    between atoms: _299  and  _302
REMARK  132  A    between atoms: _302  and  _303
REMARK  133  A    between atoms: _303  and  _304
REMARK  134  A    between atoms: _309  and  _311
REMARK  135  A    between atoms: _311  and  _312
REMARK  136  A    between atoms: _311  and  _314
REMARK  137  A    between atoms: _314  and  _315
REMARK  138  A    between atoms: _318  and  _320
REMARK  139  A    between atoms: _320  and  _321
REMARK  140  A    between atoms: _320  and  _323
REMARK  141  A    between atoms: _323  and  _324
REMARK  142  A    between atoms: _324  and  _325
REMARK  143  A    between atoms: _330  and  _332
REMARK  144  A    between atoms: _332  and  _333
REMARK  145  A    between atoms: _332  and  _335
REMARK  146  A    between atoms: _335  and  _336
REMARK  147  A    between atoms: _342  and  _344
REMARK  148  A    between atoms: _344  and  _345
REMARK  149  A    between atoms: _344  and  _347
REMARK  150  A    between atoms: _349  and  _351
REMARK  151  A    between atoms: _351  and  _352
REMARK  152  A    between atoms: _351  and  _354
REMARK  153  A    between atoms: _354  and  _355
REMARK  154  A    between atoms: _355  and  _356
REMARK  155  A    between atoms: _358  and  _360
REMARK  156  A    between atoms: _360  and  _361
REMARK  157  A    between atoms: _360  and  _363
REMARK  158  A    between atoms: _363  and  _364
REMARK  159  A    between atoms: _369  and  _371
REMARK  160  A    between atoms: _371  and  _372
REMARK  161  A    between atoms: _374  and  _376
REMARK  162  A    between atoms: _376  and  _377
REMARK  163  A    between atoms: _376  and  _379
REMARK  164  A    between atoms: _382  and  _384
REMARK  165  A    between atoms: _384  and  _385
REMARK  166  A    between atoms: _384  and  _387
REMARK  167  A    between atoms: _387  and  _388
REMARK  168  A    between atoms: _391  and  _393
REMARK  169  A    between atoms: _393  and  _394
REMARK  170  A    between atoms: _393  and  _396
REMARK  171  A    between atoms: _396  and  _397
REMARK  172  A    between atoms: _399  and  _401
REMARK  173  A    between atoms: _401  and  _402
REMARK  174  A    between atoms: _401  and  _404
REMARK  175  A    between atoms: _404  and  _405
REMARK  176  A    between atoms: _415  and  _417
REMARK  177  A    between atoms: _417  and  _418
REMARK  178  A    between atoms: _417  and  _420
REMARK  179  A    between atoms: _420  and  _421
REMARK  180  A    between atoms: _423  and  _425
REMARK  181  A    between atoms: _425  and  _426
REMARK  182  A    between atoms: _425  and  _428
REMARK  183  A    between atoms: _428  and  _429
REMARK  184  A    between atoms: _429  and  _430
REMARK  185  A    between atoms: _433  and  _435
REMARK  186  A    between atoms: _435  and  _436
REMARK  187  A    between atoms: _435  and  _438
REMARK  188  A    between atoms: _438  and  _439
REMARK  189  A    between atoms: _439  and  _440
REMARK  190  A    between atoms: _440  and  _441
REMARK                            x       y       z     vdW  Elec       q    Type
REMARK                         _______ _______ _______ _____ _____    ______ ____
ROOT
ATOM      1  C   HIS A   1      11.331  23.202  67.280  0.00  0.00    +0.239 C 
ATOM      2  N   ALA A   2      10.218  23.721  66.770  0.00  0.00    -0.297 N 
ATOM      3  H   ALA A   2       9.434  23.945  67.415  0.00  0.00    +0.150 HD
ATOM      4  O   HIS A   1      12.336  22.965  66.604  0.00  0.00    -0.274 OA
ENDROOT
BRANCH   2   5
ATOM      5  CA  ALA A   2      10.046  23.992  65.342  0.00  0.00    +0.149 C 
ATOM      6  CB  ALA A   2       8.561  23.955  65.004  0.00  0.00    +0.031 C 
BRANCH   5   7
ATOM      7  C   ALA A   2      10.664  25.286  64.822  0.00  0.00    +0.241 C 
ATOM      8  N   MET A   3      11.883  25.570  65.256  0.00  0.00    -0.298 N 
ATOM      9  H   MET A   3      12.355  24.914  65.911  0.00  0.00    +0.150 HD
ATOM     10  O   ALA A   2      10.052  26.004  64.027  0.00  0.00    -0.273 OA
BRANCH   8  11
ATOM     11  CA  MET A   3      12.578  26.779  64.838  0.00  0.00    +0.138 C 
BRANCH  11  12
ATOM     12  C   MET A   3      13.167  26.621  63.440  0.00  0.00    +0.227 C 
ATOM     13  O   MET A   3      14.076  25.816  63.226  0.00  0.00    -0.286 OA
ENDBRANCH  11  12
BRANCH  11  14
ATOM     14  CB  MET A   3      13.681  27.101  65.839  0.00  0.00    +0.039 C 
BRANCH  14  15
ATOM     15  CG  MET A   3      14.508  28.311  65.485  0.00  0.00    +0.060 C 
BRANCH  15  16
ATOM     16  SD  MET A   3      15.688  28.633  66.770  0.00  0.00    -0.139 S 
ATOM     17  CE  MET A   3      16.250  30.309  66.303  0.00  0.00    +0.069 C 
ENDBRANCH  15  16
ENDBRANCH  14  15
ENDBRANCH  11  14
ENDBRANCH   8  11
ENDBRANCH   5   7
ENDBRANCH   2   5
BRANCH   1  18
ATOM     18  CA  HIS A   1      11.303  22.914  68.785  0.00  0.00    +0.151 C 
BRANCH  18  19
ATOM     19  N   HIS A   1      11.117  21.479  68.999  0.00  0.00    -0.238 NA
ATOM     20  H   HIS A   1      11.842  20.956  69.531  0.00  0.00    +0.142 HD
ENDBRANCH  18  19
BRANCH  18  21
ATOM     21  CB  HIS A   1      12.601  23.347  69.461  0.00  0.00    +0.074 C 
BRANCH  21  22
ATOM     22  CG  HIS A   1      12.678  24.813  69.749  0.00  0.00    +0.082 A 
ATOM     23  CD2 HIS A   1      12.155  25.552  70.756  0.00  0.00    +0.115 A 
ATOM     24  NE2 HIS A   1      12.548  26.852  70.551  0.00  0.00    -0.221 NA
ATOM     25  CE1 HIS A   1      13.285  26.909  69.456  0.00  0.00    +0.199 A 
ATOM     26  ND1 HIS A   1      13.376  25.692  68.951  0.00  0.00    -0.227 NA
ENDBRANCH  21  22
ENDBRANCH  18  21
ENDBRANCH   1  18
TORSDOF 11
REMARK  Name = ../refined-set-2016/3muz/3muz_pocket.pdb
REMARK  190 active torsions:
REMARK  status: ('A' for Active; 'I' for Inactive)
REMARK    1  A    between atoms: _1  and  _3
REMARK    2  A    between atoms: _3  and  _4
REMARK    3  A    between atoms: _3  and  _6
REMARK    4  A    between atoms: _6  and  _7
REMARK    5  A    between atoms: _12  and  _13
REMARK    6  A    between atoms: _15  and  _17
REMARK    7  A    between atoms: _17  and  _18
REMARK    8  A    between atoms: _17  and  _20
REMARK    9  A    between atoms: _20  and  _21
REMARK   10  A    between atoms: _26  and  _28
REMARK   11  A    between atoms: _28  and  _29
REMARK   12  A    between atoms: _28  and  _31
REMARK   13  A    between atoms: _34  and  _36
REMARK   14  A    between atoms: _36  and  _37
REMARK   15  A    between atoms: _36  and  _39
REMARK   16  A    between atoms: _39  and  _40
REMARK   17  A    between atoms: _43  and  _45
REMARK   18  A    between atoms: _45  and  _46
REMARK   19  A    between atoms: _45  and  _48
REMARK   20  A    between atoms: _48  and  _49
REMARK   21  A    between atoms: _52  and  _54
REMARK   22  A    between atoms: _54  and  _55
REMARK   23  A    between atoms: _54  and  _57
REMARK   24  A    between atoms: _57  and  _58
REMARK   25  A    between atoms: _58  and  _59
REMARK   26  A    between atoms: _64  and  _66
REMARK   27  A    between atoms: _66  and  _67
REMARK   28  A    between atoms: _66  and  _69
REMARK   29  A    between atoms: _69  and  _70
REMARK   30  A    between atoms: _73  and  _75
REMARK   31  A    between atoms: _75  and  _76
REMARK   32  A    between atoms: _75  and  _78
REMARK   33  A    between atoms: _78  and  _79
REMARK   34  A    between atoms: _79  and  _80
REMARK   35  A    between atoms: _82  and  _84
REMARK   36  A    between atoms: _84  and  _85
REMARK   37  A    between atoms: _84  and  _87
REMARK   38  A    between atoms: _87  and  _88
REMARK   39  A    between atoms: _93  and  _95
REMARK   40  A    between atoms: _95  and  _96
REMARK   41  A    between atoms: _95  and  _98
REMARK   42  A    between atoms: _98  and  _99
REMARK   43  A    between atoms: _104  and  _106
REMARK   44  A    between atoms: _106  and  _107
REMARK   45  A    between atoms: _106  and  _109
REMARK   46  A    between atoms: _109  and  _110
REMARK   47  A    between atoms: _110  and  _111
REMARK   48  A    between atoms: _111  and  _112
REMARK   49  A    between atoms: _121  and  _123
REMARK   50  A    between atoms: _123  and  _124
REMARK   51  A    between atoms: _123  and  _126
REMARK   52  A    between atoms: _126  and  _127
REMARK   53  A    between atoms: _132  and  _134
REMARK   54  A    between atoms: _134  and  _135
REMARK   55  A    between atoms: _134  and  _137
REMARK   56  A    between atoms: _137  and  _138
REMARK   57  A    between atoms: _138  and  _139
REMARK   58  A    between atoms: _139  and  _141
REMARK   59  A    between atoms: _141  and  MG_450
REMARK   60  A    between atoms: _142  and  _144
REMARK   61  A    between atoms: _144  and  _145
REMARK   62  A    between atoms: _144  and  _147
REMARK   63  A    between atoms: _147  and  _148
REMARK   64  A    between atoms: _153  and  _155
REMARK   65  A    between atoms: _155  and  _156
REMARK   66  A    between atoms: _155  and  _158
REMARK   67  A    between atoms: _158  and  _159
REMARK   68  A    between atoms: _159  and  _160
REMARK   69  A    between atoms: _162  and  _164
REMARK   70  A    between atoms: _164  and  _165
REMARK   71  A    between atoms: _164  and  _167
REMARK   72  A    between atoms: _167  and  _168
REMARK   73  A    between atoms: _173  and  _175
REMARK   74  A    between atoms: _175  and  _176
REMARK   75  A    between atoms: _175  and  _178
REMARK   76  A    between atoms: _178  and  _179
REMARK   77  A    between atoms: _179  and  _180
REMARK   78  A    between atoms: _180  and  _181
REMARK   79  A    between atoms: _181  and  MG_450
REMARK   80  A    between atoms: _183  and  _185
REMARK   81  A    between atoms: _185  and  _186
REMARK   82  A    between atoms: _185  and  _188
REMARK   83  A    between atoms: _188  and  _189
REMARK   84  A    between atoms: _189  and  _190
REMARK   85  A    between atoms: _193  and  _195
REMARK   86  A    between atoms: _195  and  _196
REMARK   87  A    between atoms: _195  and  _198
REMARK   88  A    between atoms: _198  and  _199
REMARK   89  A    between atoms: _199  and  _200
REMARK   90  A    between atoms: _202  and  _204
REMARK   91  A    between atoms: _204  and  _205
REMARK   92  A    between atoms: _204  and  _207
REMARK   93  A    between atoms: _207  and  _208
REMARK   94  A    between atoms: _213  and  _214
REMARK   95  A    between atoms: _216  and  _218
REMARK   96  A    between atoms: _218  and  _219
REMARK   97  A    between atoms: _218  and  _221
REMARK   98  A    between atoms: _221  and  _222
REMARK   99  A    between atoms: _222  and  _223
REMARK  100  A    between atoms: _223  and  _224
REMARK  101  A    between atoms: _224  and  _225
REMARK  102  A    between atoms: _229  and  _231
REMARK  103  A    between atoms: _231  and  _232
REMARK  104  A    between atoms: _231  and  _234
REMARK  105  A    between atoms: _236  and  _238
REMARK  106  A    between atoms: _238  and  _239
REMARK  107  A    between atoms: _238  and  _241
REMARK  108  A    between atoms: _241  and  _242
REMARK  109  A    between atoms: _242  and  _243
REMARK  110  A    between atoms: _246  and  _248
REMARK  111  A    between atoms: _248  and  _249
REMARK  112  A    between atoms: _248  and  _251
REMARK  113  A    between atoms: _251  and  _252
REMARK  114  A    between atoms: _257  and  _259
REMARK  115  A    between atoms: _259  and  _260
REMARK  116  A    between atoms: _263  and  _265
REMARK  117  A    between atoms: _265  and  _266
REMARK  118  A    between atoms: _265  and  _268
REMARK  119  A    between atoms: _268  and  _269
REMARK  120  A    between atoms: _269  and  _270
REMARK  121  A    between atoms: _272  and  _274
REMARK  122  A    between atoms: _274  and  _275
REMARK  123  A    between atoms: _274  and  _277
REMARK  124  A    between atoms: _277  and  _278
REMARK  125  A    between atoms: _288  and  _290
REMARK  126  A    between atoms: _290  and  _291
REMARK  127  A    between atoms: _290  and  _293
REMARK  128  A    between atoms: _293  and  _294
REMARK  129  A    between atoms: _297  and  _299
REMARK  130  A    between atoms: _299  and  _300
REMARK  131  A    between atoms: _299  and  _302
REMARK  132  A    between atoms: _302  and  _303
REMARK  133  A    between atoms: _303  and  _304
REMARK  134  A    between atoms: _309  and  _311
REMARK  135  A    between atoms: _311  and  _312
REMARK  136  A    between atoms: _311  and  _314
REMARK  137  A    between atoms: _314  and  _315
REMARK  138  A    between atoms: _318  and  _320
REMARK  139  A    between atoms: _320  and  _321
REMARK  140  A    between atoms: _320  and  _323
REMARK  141  A    between atoms: _323  and  _324
REMARK  142  A    between atoms: _324  and  _325
REMARK  143  A    between atoms: _330  and  _332
REMARK  144  A    between atoms: _332  and  _333
REMARK  145  A    between atoms: _332  and  _335
REMARK  146  A    between atoms: _335  and  _336
REMARK  147  A    between atoms: _342  and  _344
REMARK  148  A    between atoms: _344  and  _345
REMARK  149  A    between atoms: _344  and  _347
REMARK  150  A    between atoms: _349  and  _351
REMARK  151  A    between atoms: _351  and  _352
REMARK  152  A    between atoms: _351  and  _354
REMARK  153  A    between atoms: _354  and  _355
REMARK  154  A    between atoms: _355  and  _356
REMARK  155  A    between atoms: _358  and  _360
REMARK  156  A    between atoms: _360  and  _361
REMARK  157  A    between atoms: _360  and  _363
REMARK  158  A    between atoms: _363  and  _364
REMARK  159  A    between atoms: _369  and  _371
REMARK  160  A    between atoms: _371  and  _372
REMARK  161  A    between atoms: _374  and  _376
REMARK  162  A    between atoms: _376  and  _377
REMARK  163  A    between atoms: _376  and  _379
REMARK  164  A    between atoms: _382  and  _384
REMARK  165  A    between atoms: _384  and  _385
REMARK  166  A    between atoms: _384  and  _387
REMARK  167  A    between atoms: _387  and  _388
REMARK  168  A    between atoms: _391  and  _393
REMARK  169  A    between atoms: _393  and  _394
REMARK  170  A    between atoms: _393  and  _396
REMARK  171  A    between atoms: _396  and  _397
REMARK  172  A    between atoms: _399  and  _401
REMARK  173  A    between atoms: _401  and  _402
REMARK  174  A    between atoms: _401  and  _404
REMARK  175  A    between atoms: _404  and  _405
REMARK  176  A    between atoms: _415  and  _417
REMARK  177  A    between atoms: _417  and  _418
REMARK  178  A    between atoms: _417  and  _420
REMARK  179  A    between atoms: _420  and  _421
REMARK  180  A    between atoms: _423  and  _425
REMARK  181  A    between atoms: _425  and  _426
REMARK  182  A    between atoms: _425  and  _428
REMARK  183  A    between atoms: _428  and  _429
REMARK  184  A    between atoms: _429  and  _430
REMARK  185  A    between atoms: _433  and  _435
REMARK  186  A    between atoms: _435  and  _436
REMARK  187  A    between atoms: _435  and  _438
REMARK  188  A    between atoms: _438  and  _439
REMARK  189  A    between atoms: _439  and  _440
REMARK  190  A    between atoms: _440  and  _441
REMARK                            x       y       z     vdW  Elec       q    Type
REMARK                         _______ _______ _______ _____ _____    ______ ____
ROOT
ATOM      1  CA  TRP A   1       6.890  24.326  70.637  0.00  0.00    +0.149 C 
ENDROOT
BRANCH   1   2
ATOM      2  C   TRP A   1       7.393  24.898  69.319  0.00  0.00    +0.239 C 
ATOM      3  O   TRP A   1       8.498  24.570  68.890  0.00  0.00    -0.274 OA
ATOM      4  N   ASP A   2       6.584  25.724  68.657  0.00  0.00    -0.298 N 
ATOM      5  H   ASP A   2       6.919  26.123  67.757  0.00  0.00    +0.150 HD
BRANCH   4   6
ATOM      6  CA  ASP A   2       5.257  26.099  69.125  0.00  0.00    +0.148 C 
BRANCH   6   7
ATOM      7  C   ASP A   2       4.357  26.407  67.923  0.00  0.00    +0.227 C 
ATOM      8  O   ASP A   2       4.680  26.026  66.798  0.00  0.00    -0.286 OA
ENDBRANCH   6   7
BRANCH   6   9
ATOM      9  CB  ASP A   2       5.333  27.281  70.110  0.00  0.00    +0.142 C 
BRANCH   9  10
ATOM     10  CG  ASP A   2       5.838  28.566  69.477  0.00  0.00    +0.367 C 
ATOM     11  OD2 ASP A   2       5.779  29.600  70.171  0.00  0.00    -0.246 OA
ATOM     12  OD1 ASP A   2       6.295  28.552  68.313  0.00  0.00    -0.246 OA
ENDBRANCH   9  10
ENDBRANCH   6   9
ENDBRANCH   4   6
ENDBRANCH   1   2
BRANCH   1  13
ATOM     13  N   TRP A   1       6.521  22.932  70.441  0.00  0.00    -0.238 NA
ATOM     14  H   TRP A   1       7.251  22.232  70.199  0.00  0.00    +0.142 HD
ENDBRANCH   1  13
BRANCH   1  15
ATOM     15  CB  TRP A   1       7.984  24.498  71.693  0.00  0.00    +0.054 C 
BRANCH  15  16
ATOM     16  CG  TRP A   1       8.248  25.958  71.910  0.00  0.00    -0.002 A 
ATOM     17  CD2 TRP A   1       7.576  26.811  72.844  0.00  0.00    +0.013 A 
ATOM     18  CE3 TRP A   1       6.664  26.584  73.882  0.00  0.00    +0.001 A 
ATOM     19  CZ3 TRP A   1       6.187  27.672  74.605  0.00  0.00    +0.000 A 
ATOM     20  CH2 TRP A   1       6.608  28.982  74.308  0.00  0.00    +0.001 A 
ATOM     21  CZ2 TRP A   1       7.503  29.235  73.297  0.00  0.00    +0.017 A 
ATOM     22  CE2 TRP A   1       7.982  28.141  72.569  0.00  0.00    +0.056 A 
ATOM     23  NE1 TRP A   1       8.868  28.094  71.525  0.00  0.00    -0.352 N 
ATOM     24  HE1 TRP A   1       9.342  28.914  71.097  0.00  0.00    +0.166 HD
ATOM     25  CD1 TRP A   1       9.028  26.781  71.135  0.00  0.00    +0.068 A 
ENDBRANCH  15  16
ENDBRANCH   1  15
TORSDOF 8
REMARK  Name = ../refined-set-2016/3muz/3muz_pocket.pdb
REMARK  190 active torsions:
REMARK  status: ('A' for Active; 'I' for Inactive)
REMARK    1  A    between atoms: _1  and  _3
REMARK    2  A    between atoms: _3  and  _4
REMARK    3  A    between atoms: _3  and  _6
REMARK    4  A    between atoms: _6  and  _7
REMARK    5  A    between atoms: _12  and  _13
REMARK    6  A    between atoms: _15  and  _17
REMARK    7  A    between atoms: _17  and  _18
REMARK    8  A    between atoms: _17  and  _20
REMARK    9  A    between atoms: _20  and  _21
REMARK   10  A    between atoms: _26  and  _28
REMARK   11  A    between atoms: _28  and  _29
REMARK   12  A    between atoms: _28  and  _31
REMARK   13  A    between atoms: _34  and  _36
REMARK   14  A    between atoms: _36  and  _37
REMARK   15  A    between atoms: _36  and  _39
REMARK   16  A    between atoms: _39  and  _40
REMARK   17  A    between atoms: _43  and  _45
REMARK   18  A    between atoms: _45  and  _46
REMARK   19  A    between atoms: _45  and  _48
REMARK   20  A    between atoms: _48  and  _49
REMARK   21  A    between atoms: _52  and  _54
REMARK   22  A    between atoms: _54  and  _55
REMARK   23  A    between atoms: _54  and  _57
REMARK   24  A    between atoms: _57  and  _58
REMARK   25  A    between atoms: _58  and  _59
REMARK   26  A    between atoms: _64  and  _66
REMARK   27  A    between atoms: _66  and  _67
REMARK   28  A    between atoms: _66  and  _69
REMARK   29  A    between atoms: _69  and  _70
REMARK   30  A    between atoms: _73  and  _75
REMARK   31  A    between atoms: _75  and  _76
REMARK   32  A    between atoms: _75  and  _78
REMARK   33  A    between atoms: _78  and  _79
REMARK   34  A    between atoms: _79  and  _80
REMARK   35  A    between atoms: _82  and  _84
REMARK   36  A    between atoms: _84  and  _85
REMARK   37  A    between atoms: _84  and  _87
REMARK   38  A    between atoms: _87  and  _88
REMARK   39  A    between atoms: _93  and  _95
REMARK   40  A    between atoms: _95  and  _96
REMARK   41  A    between atoms: _95  and  _98
REMARK   42  A    between atoms: _98  and  _99
REMARK   43  A    between atoms: _104  and  _106
REMARK   44  A    between atoms: _106  and  _107
REMARK   45  A    between atoms: _106  and  _109
REMARK   46  A    between atoms: _109  and  _110
REMARK   47  A    between atoms: _110  and  _111
REMARK   48  A    between atoms: _111  and  _112
REMARK   49  A    between atoms: _121  and  _123
REMARK   50  A    between atoms: _123  and  _124
REMARK   51  A    between atoms: _123  and  _126
REMARK   52  A    between atoms: _126  and  _127
REMARK   53  A    between atoms: _132  and  _134
REMARK   54  A    between atoms: _134  and  _135
REMARK   55  A    between atoms: _134  and  _137
REMARK   56  A    between atoms: _137  and  _138
REMARK   57  A    between atoms: _138  and  _139
REMARK   58  A    between atoms: _139  and  _141
REMARK   59  A    between atoms: _141  and  MG_450
REMARK   60  A    between atoms: _142  and  _144
REMARK   61  A    between atoms: _144  and  _145
REMARK   62  A    between atoms: _144  and  _147
REMARK   63  A    between atoms: _147  and  _148
REMARK   64  A    between atoms: _153  and  _155
REMARK   65  A    between atoms: _155  and  _156
REMARK   66  A    between atoms: _155  and  _158
REMARK   67  A    between atoms: _158  and  _159
REMARK   68  A    between atoms: _159  and  _160
REMARK   69  A    between atoms: _162  and  _164
REMARK   70  A    between atoms: _164  and  _165
REMARK   71  A    between atoms: _164  and  _167
REMARK   72  A    between atoms: _167  and  _168
REMARK   73  A    between atoms: _173  and  _175
REMARK   74  A    between atoms: _175  and  _176
REMARK   75  A    between atoms: _175  and  _178
REMARK   76  A    between atoms: _178  and  _179
REMARK   77  A    between atoms: _179  and  _180
REMARK   78  A    between atoms: _180  and  _181
REMARK   79  A    between atoms: _181  and  MG_450
REMARK   80  A    between atoms: _183  and  _185
REMARK   81  A    between atoms: _185  and  _186
REMARK   82  A    between atoms: _185  and  _188
REMARK   83  A    between atoms: _188  and  _189
REMARK   84  A    between atoms: _189  and  _190
REMARK   85  A    between atoms: _193  and  _195
REMARK   86  A    between atoms: _195  and  _196
REMARK   87  A    between atoms: _195  and  _198
REMARK   88  A    between atoms: _198  and  _199
REMARK   89  A    between atoms: _199  and  _200
REMARK   90  A    between atoms: _202  and  _204
REMARK   91  A    between atoms: _204  and  _205
REMARK   92  A    between atoms: _204  and  _207
REMARK   93  A    between atoms: _207  and  _208
REMARK   94  A    between atoms: _213  and  _214
REMARK   95  A    between atoms: _216  and  _218
REMARK   96  A    between atoms: _218  and  _219
REMARK   97  A    between atoms: _218  and  _221
REMARK   98  A    between atoms: _221  and  _222
REMARK   99  A    between atoms: _222  and  _223
REMARK  100  A    between atoms: _223  and  _224
REMARK  101  A    between atoms: _224  and  _225
REMARK  102  A    between atoms: _229  and  _231
REMARK  103  A    between atoms: _231  and  _232
REMARK  104  A    between atoms: _231  and  _234
REMARK  105  A    between atoms: _236  and  _238
REMARK  106  A    between atoms: _238  and  _239
REMARK  107  A    between atoms: _238  and  _241
REMARK  108  A    between atoms: _241  and  _242
REMARK  109  A    between atoms: _242  and  _243
REMARK  110  A    between atoms: _246  and  _248
REMARK  111  A    between atoms: _248  and  _249
REMARK  112  A    between atoms: _248  and  _251
REMARK  113  A    between atoms: _251  and  _252
REMARK  114  A    between atoms: _257  and  _259
REMARK  115  A    between atoms: _259  and  _260
REMARK  116  A    between atoms: _263  and  _265
REMARK  117  A    between atoms: _265  and  _266
REMARK  118  A    between atoms: _265  and  _268
REMARK  119  A    between atoms: _268  and  _269
REMARK  120  A    between atoms: _269  and  _270
REMARK  121  A    between atoms: _272  and  _274
REMARK  122  A    between atoms: _274  and  _275
REMARK  123  A    between atoms: _274  and  _277
REMARK  124  A    between atoms: _277  and  _278
REMARK  125  A    between atoms: _288  and  _290
REMARK  126  A    between atoms: _290  and  _291
REMARK  127  A    between atoms: _290  and  _293
REMARK  128  A    between atoms: _293  and  _294
REMARK  129  A    between atoms: _297  and  _299
REMARK  130  A    between atoms: _299  and  _300
REMARK  131  A    between atoms: _299  and  _302
REMARK  132  A    between atoms: _302  and  _303
REMARK  133  A    between atoms: _303  and  _304
REMARK  134  A    between atoms: _309  and  _311
REMARK  135  A    between atoms: _311  and  _312
REMARK  136  A    between atoms: _311  and  _314
REMARK  137  A    between atoms: _314  and  _315
REMARK  138  A    between atoms: _318  and  _320
REMARK  139  A    between atoms: _320  and  _321
REMARK  140  A    between atoms: _320  and  _323
REMARK  141  A    between atoms: _323  and  _324
REMARK  142  A    between atoms: _324  and  _325
REMARK  143  A    between atoms: _330  and  _332
REMARK  144  A    between atoms: _332  and  _333
REMARK  145  A    between atoms: _332  and  _335
REMARK  146  A    between atoms: _335  and  _336
REMARK  147  A    between atoms: _342  and  _344
REMARK  148  A    between atoms: _344  and  _345
REMARK  149  A    between atoms: _344  and  _347
REMARK  150  A    between atoms: _349  and  _351
REMARK  151  A    between atoms: _351  and  _352
REMARK  152  A    between atoms: _351  and  _354
REMARK  153  A    between atoms: _354  and  _355
REMARK  154  A    between atoms: _355  and  _356
REMARK  155  A    between atoms: _358  and  _360
REMARK  156  A    between atoms: _360  and  _361
REMARK  157  A    between atoms: _360  and  _363
REMARK  158  A    between atoms: _363  and  _364
REMARK  159  A    between atoms: _369  and  _371
REMARK  160  A    between atoms: _371  and  _372
REMARK  161  A    between atoms: _374  and  _376
REMARK  162  A    between atoms: _376  and  _377
REMARK  163  A    between atoms: _376  and  _379
REMARK  164  A    between atoms: _382  and  _384
REMARK  165  A    between atoms: _384  and  _385
REMARK  166  A    between atoms: _384  and  _387
REMARK  167  A    between atoms: _387  and  _388
REMARK  168  A    between atoms: _391  and  _393
REMARK  169  A    between atoms: _393  and  _394
REMARK  170  A    between atoms: _393  and  _396
REMARK  171  A    between atoms: _396  and  _397
REMARK  172  A    between atoms: _399  and  _401
REMARK  173  A    between atoms: _401  and  _402
REMARK  174  A    between atoms: _401  and  _404
REMARK  175  A    between atoms: _404  and  _405
REMARK  176  A    between atoms: _415  and  _417
REMARK  177  A    between atoms: _417  and  _418
REMARK  178  A    between atoms: _417  and  _420
REMARK  179  A    between atoms: _420  and  _421
REMARK  180  A    between atoms: _423  and  _425
REMARK  181  A    between atoms: _425  and  _426
REMARK  182  A    between atoms: _425  and  _428
REMARK  183  A    between atoms: _428  and  _429
REMARK  184  A    between atoms: _429  and  _430
REMARK  185  A    between atoms: _433  and  _435
REMARK  186  A    between atoms: _435  and  _436
REMARK  187  A    between atoms: _435  and  _438
REMARK  188  A    between atoms: _438  and  _439
REMARK  189  A    between atoms: _439  and  _440
REMARK  190  A    between atoms: _440  and  _441
REMARK                            x       y       z     vdW  Elec       q    Type
REMARK                         _______ _______ _______ _____ _____    ______ ____
ROOT
ATOM      1  CB  GLN A   1       7.135  35.733  68.251  0.00  0.00    +0.035 C 
ENDROOT
BRANCH   1   2
ATOM      2  CA  GLN A   1       6.665  35.701  66.796  0.00  0.00    +0.134 C 
BRANCH   2   3
ATOM      3  N   GLN A   1       6.905  34.402  66.186  0.00  0.00    -0.239 NA
ATOM      4  H   GLN A   1       7.721  33.829  66.481  0.00  0.00    +0.142 HD
ENDBRANCH   2   3
BRANCH   2   5
ATOM      5  C   GLN A   1       7.414  36.766  65.999  0.00  0.00    +0.224 C 
ATOM      6  O   GLN A   1       8.207  37.521  66.556  0.00  0.00    -0.287 OA
ENDBRANCH   2   5
ENDBRANCH   1   2
BRANCH   1   7
ATOM      7  CG  GLN A   1       6.189  35.082  69.246  0.00  0.00    +0.087 C 
BRANCH   7   8
ATOM      8  CD  GLN A   1       6.628  35.318  70.677  0.00  0.00    +0.219 C 
ATOM      9  NE2 GLN A   1       6.866  34.234  71.416  0.00  0.00    -0.329 N 
ATOM     10 HE21 GLN A   1       7.174  34.336  72.404  0.00  0.00    +0.145 HD
ATOM     11 HE22 GLN A   1       6.743  33.287  71.004  0.00  0.00    +0.145 HD
ATOM     12  OE1 GLN A   1       6.758  36.465  71.116  0.00  0.00    -0.275 OA
ENDBRANCH   7   8
ENDBRANCH   1   7
TORSDOF 5
REMARK  Name = ../refined-set-2016/3muz/3muz_pocket.pdb
REMARK  190 active torsions:
REMARK  status: ('A' for Active; 'I' for Inactive)
REMARK    1  A    between atoms: _1  and  _3
REMARK    2  A    between atoms: _3  and  _4
REMARK    3  A    between atoms: _3  and  _6
REMARK    4  A    between atoms: _6  and  _7
REMARK    5  A    between atoms: _12  and  _13
REMARK    6  A    between atoms: _15  and  _17
REMARK    7  A    between atoms: _17  and  _18
REMARK    8  A    between atoms: _17  and  _20
REMARK    9  A    between atoms: _20  and  _21
REMARK   10  A    between atoms: _26  and  _28
REMARK   11  A    between atoms: _28  and  _29
REMARK   12  A    between atoms: _28  and  _31
REMARK   13  A    between atoms: _34  and  _36
REMARK   14  A    between atoms: _36  and  _37
REMARK   15  A    between atoms: _36  and  _39
REMARK   16  A    between atoms: _39  and  _40
REMARK   17  A    between atoms: _43  and  _45
REMARK   18  A    between atoms: _45  and  _46
REMARK   19  A    between atoms: _45  and  _48
REMARK   20  A    between atoms: _48  and  _49
REMARK   21  A    between atoms: _52  and  _54
REMARK   22  A    between atoms: _54  and  _55
REMARK   23  A    between atoms: _54  and  _57
REMARK   24  A    between atoms: _57  and  _58
REMARK   25  A    between atoms: _58  and  _59
REMARK   26  A    between atoms: _64  and  _66
REMARK   27  A    between atoms: _66  and  _67
REMARK   28  A    between atoms: _66  and  _69
REMARK   29  A    between atoms: _69  and  _70
REMARK   30  A    between atoms: _73  and  _75
REMARK   31  A    between atoms: _75  and  _76
REMARK   32  A    between atoms: _75  and  _78
REMARK   33  A    between atoms: _78  and  _79
REMARK   34  A    between atoms: _79  and  _80
REMARK   35  A    between atoms: _82  and  _84
REMARK   36  A    between atoms: _84  and  _85
REMARK   37  A    between atoms: _84  and  _87
REMARK   38  A    between atoms: _87  and  _88
REMARK   39  A    between atoms: _93  and  _95
REMARK   40  A    between atoms: _95  and  _96
REMARK   41  A    between atoms: _95  and  _98
REMARK   42  A    between atoms: _98  and  _99
REMARK   43  A    between atoms: _104  and  _106
REMARK   44  A    between atoms: _106  and  _107
REMARK   45  A    between atoms: _106  and  _109
REMARK   46  A    between atoms: _109  and  _110
REMARK   47  A    between atoms: _110  and  _111
REMARK   48  A    between atoms: _111  and  _112
REMARK   49  A    between atoms: _121  and  _123
REMARK   50  A    between atoms: _123  and  _124
REMARK   51  A    between atoms: _123  and  _126
REMARK   52  A    between atoms: _126  and  _127
REMARK   53  A    between atoms: _132  and  _134
REMARK   54  A    between atoms: _134  and  _135
REMARK   55  A    between atoms: _134  and  _137
REMARK   56  A    between atoms: _137  and  _138
REMARK   57  A    between atoms: _138  and  _139
REMARK   58  A    between atoms: _139  and  _141
REMARK   59  A    between atoms: _141  and  MG_450
REMARK   60  A    between atoms: _142  and  _144
REMARK   61  A    between atoms: _144  and  _145
REMARK   62  A    between atoms: _144  and  _147
REMARK   63  A    between atoms: _147  and  _148
REMARK   64  A    between atoms: _153  and  _155
REMARK   65  A    between atoms: _155  and  _156
REMARK   66  A    between atoms: _155  and  _158
REMARK   67  A    between atoms: _158  and  _159
REMARK   68  A    between atoms: _159  and  _160
REMARK   69  A    between atoms: _162  and  _164
REMARK   70  A    between atoms: _164  and  _165
REMARK   71  A    between atoms: _164  and  _167
REMARK   72  A    between atoms: _167  and  _168
REMARK   73  A    between atoms: _173  and  _175
REMARK   74  A    between atoms: _175  and  _176
REMARK   75  A    between atoms: _175  and  _178
REMARK   76  A    between atoms: _178  and  _179
REMARK   77  A    between atoms: _179  and  _180
REMARK   78  A    between atoms: _180  and  _181
REMARK   79  A    between atoms: _181  and  MG_450
REMARK   80  A    between atoms: _183  and  _185
REMARK   81  A    between atoms: _185  and  _186
REMARK   82  A    between atoms: _185  and  _188
REMARK   83  A    between atoms: _188  and  _189
REMARK   84  A    between atoms: _189  and  _190
REMARK   85  A    between atoms: _193  and  _195
REMARK   86  A    between atoms: _195  and  _196
REMARK   87  A    between atoms: _195  and  _198
REMARK   88  A    between atoms: _198  and  _199
REMARK   89  A    between atoms: _199  and  _200
REMARK   90  A    between atoms: _202  and  _204
REMARK   91  A    between atoms: _204  and  _205
REMARK   92  A    between atoms: _204  and  _207
REMARK   93  A    between atoms: _207  and  _208
REMARK   94  A    between atoms: _213  and  _214
REMARK   95  A    between atoms: _216  and  _218
REMARK   96  A    between atoms: _218  and  _219
REMARK   97  A    between atoms: _218  and  _221
REMARK   98  A    between atoms: _221  and  _222
REMARK   99  A    between atoms: _222  and  _223
REMARK  100  A    between atoms: _223  and  _224
REMARK  101  A    between atoms: _224  and  _225
REMARK  102  A    between atoms: _229  and  _231
REMARK  103  A    between atoms: _231  and  _232
REMARK  104  A    between atoms: _231  and  _234
REMARK  105  A    between atoms: _236  and  _238
REMARK  106  A    between atoms: _238  and  _239
REMARK  107  A    between atoms: _238  and  _241
REMARK  108  A    between atoms: _241  and  _242
REMARK  109  A    between atoms: _242  and  _243
REMARK  110  A    between atoms: _246  and  _248
REMARK  111  A    between atoms: _248  and  _249
REMARK  112  A    between atoms: _248  and  _251
REMARK  113  A    between atoms: _251  and  _252
REMARK  114  A    between atoms: _257  and  _259
REMARK  115  A    between atoms: _259  and  _260
REMARK  116  A    between atoms: _263  and  _265
REMARK  117  A    between atoms: _265  and  _266
REMARK  118  A    between atoms: _265  and  _268
REMARK  119  A    between atoms: _268  and  _269
REMARK  120  A    between atoms: _269  and  _270
REMARK  121  A    between atoms: _272  and  _274
REMARK  122  A    between atoms: _274  and  _275
REMARK  123  A    between atoms: _274  and  _277
REMARK  124  A    between atoms: _277  and  _278
REMARK  125  A    between atoms: _288  and  _290
REMARK  126  A    between atoms: _290  and  _291
REMARK  127  A    between atoms: _290  and  _293
REMARK  128  A    between atoms: _293  and  _294
REMARK  129  A    between atoms: _297  and  _299
REMARK  130  A    between atoms: _299  and  _300
REMARK  131  A    between atoms: _299  and  _302
REMARK  132  A    between atoms: _302  and  _303
REMARK  133  A    between atoms: _303  and  _304
REMARK  134  A    between atoms: _309  and  _311
REMARK  135  A    between atoms: _311  and  _312
REMARK  136  A    between atoms: _311  and  _314
REMARK  137  A    between atoms: _314  and  _315
REMARK  138  A    between atoms: _318  and  _320
REMARK  139  A    between atoms: _320  and  _321
REMARK  140  A    between atoms: _320  and  _323
REMARK  141  A    between atoms: _323  and  _324
REMARK  142  A    between atoms: _324  and  _325
REMARK  143  A    between atoms: _330  and  _332
REMARK  144  A    between atoms: _332  and  _333
REMARK  145  A    between atoms: _332  and  _335
REMARK  146  A    between atoms: _335  and  _336
REMARK  147  A    between atoms: _342  and  _344
REMARK  148  A    between atoms: _344  and  _345
REMARK  149  A    between atoms: _344  and  _347
REMARK  150  A    between atoms: _349  and  _351
REMARK  151  A    between atoms: _351  and  _352
REMARK  152  A    between atoms: _351  and  _354
REMARK  153  A    between atoms: _354  and  _355
REMARK  154  A    between atoms: _355  and  _356
REMARK  155  A    between atoms: _358  and  _360
REMARK  156  A    between atoms: _360  and  _361
REMARK  157  A    between atoms: _360  and  _363
REMARK  158  A    between atoms: _363  and  _364
REMARK  159  A    between atoms: _369  and  _371
REMARK  160  A    between atoms: _371  and  _372
REMARK  161  A    between atoms: _374  and  _376
REMARK  162  A    between atoms: _376  and  _377
REMARK  163  A    between atoms: _376  and  _379
REMARK  164  A    between atoms: _382  and  _384
REMARK  165  A    between atoms: _384  and  _385
REMARK  166  A    between atoms: _384  and  _387
REMARK  167  A    between atoms: _387  and  _388
REMARK  168  A    between atoms: _391  and  _393
REMARK  169  A    between atoms: _393  and  _394
REMARK  170  A    between atoms: _393  and  _396
REMARK  171  A    between atoms: _396  and  _397
REMARK  172  A    between atoms: _399  and  _401
REMARK  173  A    between atoms: _401  and  _402
REMARK  174  A    between atoms: _401  and  _404
REMARK  175  A    between atoms: _404  and  _405
REMARK  176  A    between atoms: _415  and  _417
REMARK  177  A    between atoms: _417  and  _418
REMARK  178  A    between atoms: _417  and  _420
REMARK  179  A    between atoms: _420  and  _421
REMARK  180  A    between atoms: _423  and  _425
REMARK  181  A    between atoms: _425  and  _426
REMARK  182  A    between atoms: _425  and  _428
REMARK  183  A    between atoms: _428  and  _429
REMARK  184  A    between atoms: _429  and  _430
REMARK  185  A    between atoms: _433  and  _435
REMARK  186  A    between atoms: _435  and  _436
REMARK  187  A    between atoms: _435  and  _438
REMARK  188  A    between atoms: _438  and  _439
REMARK  189  A    between atoms: _439  and  _440
REMARK  190  A    between atoms: _440  and  _441
REMARK                            x       y       z     vdW  Elec       q    Type
REMARK                         _______ _______ _______ _____ _____    ______ ____
ROOT
ATOM      1  CA  ASP A   1      17.938  37.189  71.051  0.00  0.00    +0.144 C 
ENDROOT
BRANCH   1   2
ATOM      2  N   ASP A   1      17.613  38.561  71.409  0.00  0.00    -0.239 NA
ATOM      3  H   ASP A   1      16.623  38.878  71.391  0.00  0.00    +0.142 HD
ENDBRANCH   1   2
BRANCH   1   4
ATOM      4  C   ASP A   1      17.549  36.823  69.626  0.00  0.00    +0.225 C 
ATOM      5  O   ASP A   1      17.134  35.702  69.337  0.00  0.00    -0.287 OA
ENDBRANCH   1   4
BRANCH   1   6
ATOM      6  CB  ASP A   1      17.325  36.219  72.061  0.00  0.00    +0.139 C 
BRANCH   6   7
ATOM      7  CG  ASP A   1      18.065  36.234  73.383  0.00  0.00    +0.367 C 
ATOM      8  OD2 ASP A   1      17.435  36.529  74.419  0.00  0.00    -0.246 OA
ATOM      9  OD1 ASP A   1      19.286  35.960  73.380  0.00  0.00    -0.246 OA
ENDBRANCH   6   7
ENDBRANCH   1   6
TORSDOF 4
REMARK  Name = ../refined-set-2016/3muz/3muz_pocket.pdb
REMARK  190 active torsions:
REMARK  status: ('A' for Active; 'I' for Inactive)
REMARK    1  A    between atoms: _1  and  _3
REMARK    2  A    between atoms: _3  and  _4
REMARK    3  A    between atoms: _3  and  _6
REMARK    4  A    between atoms: _6  and  _7
REMARK    5  A    between atoms: _12  and  _13
REMARK    6  A    between atoms: _15  and  _17
REMARK    7  A    between atoms: _17  and  _18
REMARK    8  A    between atoms: _17  and  _20
REMARK    9  A    between atoms: _20  and  _21
REMARK   10  A    between atoms: _26  and  _28
REMARK   11  A    between atoms: _28  and  _29
REMARK   12  A    between atoms: _28  and  _31
REMARK   13  A    between atoms: _34  and  _36
REMARK   14  A    between atoms: _36  and  _37
REMARK   15  A    between atoms: _36  and  _39
REMARK   16  A    between atoms: _39  and  _40
REMARK   17  A    between atoms: _43  and  _45
REMARK   18  A    between atoms: _45  and  _46
REMARK   19  A    between atoms: _45  and  _48
REMARK   20  A    between atoms: _48  and  _49
REMARK   21  A    between atoms: _52  and  _54
REMARK   22  A    between atoms: _54  and  _55
REMARK   23  A    between atoms: _54  and  _57
REMARK   24  A    between atoms: _57  and  _58
REMARK   25  A    between atoms: _58  and  _59
REMARK   26  A    between atoms: _64  and  _66
REMARK   27  A    between atoms: _66  and  _67
REMARK   28  A    between atoms: _66  and  _69
REMARK   29  A    between atoms: _69  and  _70
REMARK   30  A    between atoms: _73  and  _75
REMARK   31  A    between atoms: _75  and  _76
REMARK   32  A    between atoms: _75  and  _78
REMARK   33  A    between atoms: _78  and  _79
REMARK   34  A    between atoms: _79  and  _80
REMARK   35  A    between atoms: _82  and  _84
REMARK   36  A    between atoms: _84  and  _85
REMARK   37  A    between atoms: _84  and  _87
REMARK   38  A    between atoms: _87  and  _88
REMARK   39  A    between atoms: _93  and  _95
REMARK   40  A    between atoms: _95  and  _96
REMARK   41  A    between atoms: _95  and  _98
REMARK   42  A    between atoms: _98  and  _99
REMARK   43  A    between atoms: _104  and  _106
REMARK   44  A    between atoms: _106  and  _107
REMARK   45  A    between atoms: _106  and  _109
REMARK   46  A    between atoms: _109  and  _110
REMARK   47  A    between atoms: _110  and  _111
REMARK   48  A    between atoms: _111  and  _112
REMARK   49  A    between atoms: _121  and  _123
REMARK   50  A    between atoms: _123  and  _124
REMARK   51  A    between atoms: _123  and  _126
REMARK   52  A    between atoms: _126  and  _127
REMARK   53  A    between atoms: _132  and  _134
REMARK   54  A    between atoms: _134  and  _135
REMARK   55  A    between atoms: _134  and  _137
REMARK   56  A    between atoms: _137  and  _138
REMARK   57  A    between atoms: _138  and  _139
REMARK   58  A    between atoms: _139  and  _141
REMARK   59  A    between atoms: _141  and  MG_450
REMARK   60  A    between atoms: _142  and  _144
REMARK   61  A    between atoms: _144  and  _145
REMARK   62  A    between atoms: _144  and  _147
REMARK   63  A    between atoms: _147  and  _148
REMARK   64  A    between atoms: _153  and  _155
REMARK   65  A    between atoms: _155  and  _156
REMARK   66  A    between atoms: _155  and  _158
REMARK   67  A    between atoms: _158  and  _159
REMARK   68  A    between atoms: _159  and  _160
REMARK   69  A    between atoms: _162  and  _164
REMARK   70  A    between atoms: _164  and  _165
REMARK   71  A    between atoms: _164  and  _167
REMARK   72  A    between atoms: _167  and  _168
REMARK   73  A    between atoms: _173  and  _175
REMARK   74  A    between atoms: _175  and  _176
REMARK   75  A    between atoms: _175  and  _178
REMARK   76  A    between atoms: _178  and  _179
REMARK   77  A    between atoms: _179  and  _180
REMARK   78  A    between atoms: _180  and  _181
REMARK   79  A    between atoms: _181  and  MG_450
REMARK   80  A    between atoms: _183  and  _185
REMARK   81  A    between atoms: _185  and  _186
REMARK   82  A    between atoms: _185  and  _188
REMARK   83  A    between atoms: _188  and  _189
REMARK   84  A    between atoms: _189  and  _190
REMARK   85  A    between atoms: _193  and  _195
REMARK   86  A    between atoms: _195  and  _196
REMARK   87  A    between atoms: _195  and  _198
REMARK   88  A    between atoms: _198  and  _199
REMARK   89  A    between atoms: _199  and  _200
REMARK   90  A    between atoms: _202  and  _204
REMARK   91  A    between atoms: _204  and  _205
REMARK   92  A    between atoms: _204  and  _207
REMARK   93  A    between atoms: _207  and  _208
REMARK   94  A    between atoms: _213  and  _214
REMARK   95  A    between atoms: _216  and  _218
REMARK   96  A    between atoms: _218  and  _219
REMARK   97  A    between atoms: _218  and  _221
REMARK   98  A    between atoms: _221  and  _222
REMARK   99  A    between atoms: _222  and  _223
REMARK  100  A    between atoms: _223  and  _224
REMARK  101  A    between atoms: _224  and  _225
REMARK  102  A    between atoms: _229  and  _231
REMARK  103  A    between atoms: _231  and  _232
REMARK  104  A    between atoms: _231  and  _234
REMARK  105  A    between atoms: _236  and  _238
REMARK  106  A    between atoms: _238  and  _239
REMARK  107  A    between atoms: _238  and  _241
REMARK  108  A    between atoms: _241  and  _242
REMARK  109  A    between atoms: _242  and  _243
REMARK  110  A    between atoms: _246  and  _248
REMARK  111  A    between atoms: _248  and  _249
REMARK  112  A    between atoms: _248  and  _251
REMARK  113  A    between atoms: _251  and  _252
REMARK  114  A    between atoms: _257  and  _259
REMARK  115  A    between atoms: _259  and  _260
REMARK  116  A    between atoms: _263  and  _265
REMARK  117  A    between atoms: _265  and  _266
REMARK  118  A    between atoms: _265  and  _268
REMARK  119  A    between atoms: _268  and  _269
REMARK  120  A    between atoms: _269  and  _270
REMARK  121  A    between atoms: _272  and  _274
REMARK  122  A    between atoms: _274  and  _275
REMARK  123  A    between atoms: _274  and  _277
REMARK  124  A    between atoms: _277  and  _278
REMARK  125  A    between atoms: _288  and  _290
REMARK  126  A    between atoms: _290  and  _291
REMARK  127  A    between atoms: _290  and  _293
REMARK  128  A    between atoms: _293  and  _294
REMARK  129  A    between atoms: _297  and  _299
REMARK  130  A    between atoms: _299  and  _300
REMARK  131  A    between atoms: _299  and  _302
REMARK  132  A    between atoms: _302  and  _303
REMARK  133  A    between atoms: _303  and  _304
REMARK  134  A    between atoms: _309  and  _311
REMARK  135  A    between atoms: _311  and  _312
REMARK  136  A    between atoms: _311  and  _314
REMARK  137  A    between atoms: _314  and  _315
REMARK  138  A    between atoms: _318  and  _320
REMARK  139  A    between atoms: _320  and  _321
REMARK  140  A    between atoms: _320  and  _323
REMARK  141  A    between atoms: _323  and  _324
REMARK  142  A    between atoms: _324  and  _325
REMARK  143  A    between atoms: _330  and  _332
REMARK  144  A    between atoms: _332  and  _333
REMARK  145  A    between atoms: _332  and  _335
REMARK  146  A    between atoms: _335  and  _336
REMARK  147  A    between atoms: _342  and  _344
REMARK  148  A    between atoms: _344  and  _345
REMARK  149  A    between atoms: _344  and  _347
REMARK  150  A    between atoms: _349  and  _351
REMARK  151  A    between atoms: _351  and  _352
REMARK  152  A    between atoms: _351  and  _354
REMARK  153  A    between atoms: _354  and  _355
REMARK  154  A    between atoms: _355  and  _356
REMARK  155  A    between atoms: _358  and  _360
REMARK  156  A    between atoms: _360  and  _361
REMARK  157  A    between atoms: _360  and  _363
REMARK  158  A    between atoms: _363  and  _364
REMARK  159  A    between atoms: _369  and  _371
REMARK  160  A    between atoms: _371  and  _372
REMARK  161  A    between atoms: _374  and  _376
REMARK  162  A    between atoms: _376  and  _377
REMARK  163  A    between atoms: _376  and  _379
REMARK  164  A    between atoms: _382  and  _384
REMARK  165  A    between atoms: _384  and  _385
REMARK  166  A    between atoms: _384  and  _387
REMARK  167  A    between atoms: _387  and  _388
REMARK  168  A    between atoms: _391  and  _393
REMARK  169  A    between atoms: _393  and  _394
REMARK  170  A    between atoms: _393  and  _396
REMARK  171  A    between atoms: _396  and  _397
REMARK  172  A    between atoms: _399  and  _401
REMARK  173  A    between atoms: _401  and  _402
REMARK  174  A    between atoms: _401  and  _404
REMARK  175  A    between atoms: _404  and  _405
REMARK  176  A    between atoms: _415  and  _417
REMARK  177  A    between atoms: _417  and  _418
REMARK  178  A    between atoms: _417  and  _420
REMARK  179  A    between atoms: _420  and  _421
REMARK  180  A    between atoms: _423  and  _425
REMARK  181  A    between atoms: _425  and  _426
REMARK  182  A    between atoms: _425  and  _428
REMARK  183  A    between atoms: _428  and  _429
REMARK  184  A    between atoms: _429  and  _430
REMARK  185  A    between atoms: _433  and  _435
REMARK  186  A    between atoms: _435  and  _436
REMARK  187  A    between atoms: _435  and  _438
REMARK  188  A    between atoms: _438  and  _439
REMARK  189  A    between atoms: _439  and  _440
REMARK  190  A    between atoms: _440  and  _441
REMARK                            x       y       z     vdW  Elec       q    Type
REMARK                         _______ _______ _______ _____ _____    ______ ____
ROOT
ATOM      1  C   PHE A   2      13.320  33.038  69.010  0.00  0.00    +0.241 C 
ATOM      2  O   PHE A   2      12.718  32.266  69.756  0.00  0.00    -0.273 OA
ATOM      3  N   CYS A   3      12.750  34.117  68.481  0.00  0.00    -0.296 N 
ATOM      4  H   CYS A   3      13.307  34.747  67.869  0.00  0.00    +0.150 HD
ENDROOT
BRANCH   3   5
ATOM      5  CA  CYS A   3      11.352  34.424  68.752  0.00  0.00    +0.160 C 
BRANCH   5   6
ATOM      6  C   CYS A   3      10.483  33.749  67.699  0.00  0.00    +0.242 C 
ATOM      7  O   CYS A   3       9.258  33.808  67.767  0.00  0.00    -0.273 OA
ATOM      8  N   MET A   4      11.125  33.105  66.728  0.00  0.00    -0.297 N 
ATOM      9  H   MET A   4      12.165  33.092  66.730  0.00  0.00    +0.150 HD
BRANCH   8  10
ATOM     10  CA  MET A   4      10.405  32.416  65.659  0.00  0.00    +0.149 C 
BRANCH  10  11
ATOM     11  C   MET A   4      10.645  30.906  65.771  0.00  0.00    +0.241 C 
ATOM     12  N   ASN A   5       9.683  30.196  66.357  0.00  0.00    -0.298 N 
ATOM     13  H   ASN A   5       8.829  30.686  66.692  0.00  0.00    +0.150 HD
ATOM     14  O   MET A   4      11.681  30.401  65.336  0.00  0.00    -0.273 OA
BRANCH  12  15
ATOM     15  CA  ASN A   5       9.788  28.746  66.545  0.00  0.00    +0.146 C 
BRANCH  15  16
ATOM     16  C   ASN A   5       8.478  28.067  66.131  0.00  0.00    +0.227 C 
ATOM     17  O   ASN A   5       8.207  26.931  66.531  0.00  0.00    -0.286 OA
ENDBRANCH  15  16
BRANCH  15  18
ATOM     18  CB  ASN A   5      10.028  28.409  68.024  0.00  0.00    +0.112 C 
BRANCH  18  19
ATOM     19  CG  ASN A   5      10.950  29.384  68.722  0.00  0.00    +0.222 C 
ATOM     20  OD1 ASN A   5      10.630  29.878  69.806  0.00  0.00    -0.275 OA
ATOM     21  ND2 ASN A   5      12.105  29.656  68.123  0.00  0.00    -0.329 N 
ATOM     22 HD21 ASN A   5      12.781  30.309  68.569  0.00  0.00    +0.145 HD
ATOM     23 HD22 ASN A   5      12.333  29.216  67.209  0.00  0.00    +0.145 HD
ENDBRANCH  18  19
ENDBRANCH  15  18
ENDBRANCH  12  15
ENDBRANCH  10  11
BRANCH  10  24
ATOM     24  CB  MET A   4      10.871  32.921  64.282  0.00  0.00    +0.041 C 
BRANCH  24  25
ATOM     25  CG  MET A   4      10.765  34.443  64.088  0.00  0.00    +0.060 C 
BRANCH  25  26
ATOM     26  SD  MET A   4      11.177  34.991  62.396  0.00  0.00    -0.139 S 
ATOM     27  CE  MET A   4      12.927  34.734  62.418  0.00  0.00    +0.069 C 
ENDBRANCH  25  26
ENDBRANCH  24  25
ENDBRANCH  10  24
ENDBRANCH   8  10
ENDBRANCH   5   6
BRANCH   5  28
ATOM     28  CB  CYS A   3      11.108  35.936  68.732  0.00  0.00    +0.098 C 
ATOM     29  SG  CYS A   3      11.592  36.769  67.200  0.00  0.00    -0.080 S 
ENDBRANCH   5  28
ENDBRANCH   3   5
BRANCH   1  30
ATOM     30  CA  PHE A   2      14.772  32.778  68.644  0.00  0.00    +0.153 C 
BRANCH  30  32
ATOM     31  C   GLN A   1      14.918  33.825  66.493  0.00  0.00    +0.238 C 
ATOM     32  N   PHE A   2      15.342  33.775  67.750  0.00  0.00    -0.297 N 
ATOM     33  H   PHE A   2      16.069  34.437  68.090  0.00  0.00    +0.150 HD
ATOM     34  O   GLN A   1      14.052  33.061  66.064  0.00  0.00    -0.274 OA
BRANCH  31  35
ATOM     35  CA  GLN A   1      15.522  34.879  65.570  0.00  0.00    +0.145 C 
BRANCH  35  36
ATOM     36  N   GLN A   1      16.573  35.742  66.102  0.00  0.00    -0.238 NA
ATOM     37  H   GLN A   1      17.567  35.539  65.872  0.00  0.00    +0.142 HD
ENDBRANCH  35  36
BRANCH  35  38
ATOM     38  CB  GLN A   1      16.000  34.194  64.282  0.00  0.00    +0.036 C 
BRANCH  38  39
ATOM     39  CG  GLN A   1      17.127  33.194  64.477  0.00  0.00    +0.087 C 
BRANCH  39  40
ATOM     40  CD  GLN A   1      18.490  33.771  64.160  0.00  0.00    +0.219 C 
ATOM     41  OE1 GLN A   1      18.900  34.793  64.718  0.00  0.00    -0.275 OA
ATOM     42  NE2 GLN A   1      19.211  33.107  63.260  0.00  0.00    -0.329 N 
ATOM     43 HE21 GLN A   1      20.160  33.445  63.002  0.00  0.00    +0.145 HD
ATOM     44 HE22 GLN A   1      18.825  32.250  62.815  0.00  0.00    +0.145 HD
ENDBRANCH  39  40
ENDBRANCH  38  39
ENDBRANCH  35  38
ENDBRANCH  31  35
ENDBRANCH  30  32
BRANCH  30  45
ATOM     45  CB  PHE A   2      15.612  32.626  69.909  0.00  0.00    +0.055 C 
BRANCH  45  46
ATOM     46  CG  PHE A   2      16.712  31.626  69.766  0.00  0.00    -0.020 A 
ATOM     47  CD2 PHE A   2      16.526  30.313  70.182  0.00  0.00    -0.004 A 
ATOM     48  CE2 PHE A   2      17.519  29.357  69.989  0.00  0.00    -0.000 A 
ATOM     49  CZ  PHE A   2      18.720  29.714  69.374  0.00  0.00    -0.000 A 
ATOM     50  CE1 PHE A   2      18.916  31.026  68.957  0.00  0.00    -0.000 A 
ATOM     51  CD1 PHE A   2      17.913  31.974  69.155  0.00  0.00    -0.004 A 
ENDBRANCH  45  46
ENDBRANCH  30  45
ENDBRANCH   1  30
TORSDOF 21
REMARK  Name = ../refined-set-2016/3muz/3muz_pocket.pdb
REMARK  190 active torsions:
REMARK  status: ('A' for Active; 'I' for Inactive)
REMARK    1  A    between atoms: _1  and  _3
REMARK    2  A    between atoms: _3  and  _4
REMARK    3  A    between atoms: _3  and  _6
REMARK    4  A    between atoms: _6  and  _7
REMARK    5  A    between atoms: _12  and  _13
REMARK    6  A    between atoms: _15  and  _17
REMARK    7  A    between atoms: _17  and  _18
REMARK    8  A    between atoms: _17  and  _20
REMARK    9  A    between atoms: _20  and  _21
REMARK   10  A    between atoms: _26  and  _28
REMARK   11  A    between atoms: _28  and  _29
REMARK   12  A    between atoms: _28  and  _31
REMARK   13  A    between atoms: _34  and  _36
REMARK   14  A    between atoms: _36  and  _37
REMARK   15  A    between atoms: _36  and  _39
REMARK   16  A    between atoms: _39  and  _40
REMARK   17  A    between atoms: _43  and  _45
REMARK   18  A    between atoms: _45  and  _46
REMARK   19  A    between atoms: _45  and  _48
REMARK   20  A    between atoms: _48  and  _49
REMARK   21  A    between atoms: _52  and  _54
REMARK   22  A    between atoms: _54  and  _55
REMARK   23  A    between atoms: _54  and  _57
REMARK   24  A    between atoms: _57  and  _58
REMARK   25  A    between atoms: _58  and  _59
REMARK   26  A    between atoms: _64  and  _66
REMARK   27  A    between atoms: _66  and  _67
REMARK   28  A    between atoms: _66  and  _69
REMARK   29  A    between atoms: _69  and  _70
REMARK   30  A    between atoms: _73  and  _75
REMARK   31  A    between atoms: _75  and  _76
REMARK   32  A    between atoms: _75  and  _78
REMARK   33  A    between atoms: _78  and  _79
REMARK   34  A    between atoms: _79  and  _80
REMARK   35  A    between atoms: _82  and  _84
REMARK   36  A    between atoms: _84  and  _85
REMARK   37  A    between atoms: _84  and  _87
REMARK   38  A    between atoms: _87  and  _88
REMARK   39  A    between atoms: _93  and  _95
REMARK   40  A    between atoms: _95  and  _96
REMARK   41  A    between atoms: _95  and  _98
REMARK   42  A    between atoms: _98  and  _99
REMARK   43  A    between atoms: _104  and  _106
REMARK   44  A    between atoms: _106  and  _107
REMARK   45  A    between atoms: _106  and  _109
REMARK   46  A    between atoms: _109  and  _110
REMARK   47  A    between atoms: _110  and  _111
REMARK   48  A    between atoms: _111  and  _112
REMARK   49  A    between atoms: _121  and  _123
REMARK   50  A    between atoms: _123  and  _124
REMARK   51  A    between atoms: _123  and  _126
REMARK   52  A    between atoms: _126  and  _127
REMARK   53  A    between atoms: _132  and  _134
REMARK   54  A    between atoms: _134  and  _135
REMARK   55  A    between atoms: _134  and  _137
REMARK   56  A    between atoms: _137  and  _138
REMARK   57  A    between atoms: _138  and  _139
REMARK   58  A    between atoms: _139  and  _141
REMARK   59  A    between atoms: _141  and  MG_450
REMARK   60  A    between atoms: _142  and  _144
REMARK   61  A    between atoms: _144  and  _145
REMARK   62  A    between atoms: _144  and  _147
REMARK   63  A    between atoms: _147  and  _148
REMARK   64  A    between atoms: _153  and  _155
REMARK   65  A    between atoms: _155  and  _156
REMARK   66  A    between atoms: _155  and  _158
REMARK   67  A    between atoms: _158  and  _159
REMARK   68  A    between atoms: _159  and  _160
REMARK   69  A    between atoms: _162  and  _164
REMARK   70  A    between atoms: _164  and  _165
REMARK   71  A    between atoms: _164  and  _167
REMARK   72  A    between atoms: _167  and  _168
REMARK   73  A    between atoms: _173  and  _175
REMARK   74  A    between atoms: _175  and  _176
REMARK   75  A    between atoms: _175  and  _178
REMARK   76  A    between atoms: _178  and  _179
REMARK   77  A    between atoms: _179  and  _180
REMARK   78  A    between atoms: _180  and  _181
REMARK   79  A    between atoms: _181  and  MG_450
REMARK   80  A    between atoms: _183  and  _185
REMARK   81  A    between atoms: _185  and  _186
REMARK   82  A    between atoms: _185  and  _188
REMARK   83  A    between atoms: _188  and  _189
REMARK   84  A    between atoms: _189  and  _190
REMARK   85  A    between atoms: _193  and  _195
REMARK   86  A    between atoms: _195  and  _196
REMARK   87  A    between atoms: _195  and  _198
REMARK   88  A    between atoms: _198  and  _199
REMARK   89  A    between atoms: _199  and  _200
REMARK   90  A    between atoms: _202  and  _204
REMARK   91  A    between atoms: _204  and  _205
REMARK   92  A    between atoms: _204  and  _207
REMARK   93  A    between atoms: _207  and  _208
REMARK   94  A    between atoms: _213  and  _214
REMARK   95  A    between atoms: _216  and  _218
REMARK   96  A    between atoms: _218  and  _219
REMARK   97  A    between atoms: _218  and  _221
REMARK   98  A    between atoms: _221  and  _222
REMARK   99  A    between atoms: _222  and  _223
REMARK  100  A    between atoms: _223  and  _224
REMARK  101  A    between atoms: _224  and  _225
REMARK  102  A    between atoms: _229  and  _231
REMARK  103  A    between atoms: _231  and  _232
REMARK  104  A    between atoms: _231  and  _234
REMARK  105  A    between atoms: _236  and  _238
REMARK  106  A    between atoms: _238  and  _239
REMARK  107  A    between atoms: _238  and  _241
REMARK  108  A    between atoms: _241  and  _242
REMARK  109  A    between atoms: _242  and  _243
REMARK  110  A    between atoms: _246  and  _248
REMARK  111  A    between atoms: _248  and  _249
REMARK  112  A    between atoms: _248  and  _251
REMARK  113  A    between atoms: _251  and  _252
REMARK  114  A    between atoms: _257  and  _259
REMARK  115  A    between atoms: _259  and  _260
REMARK  116  A    between atoms: _263  and  _265
REMARK  117  A    between atoms: _265  and  _266
REMARK  118  A    between atoms: _265  and  _268
REMARK  119  A    between atoms: _268  and  _269
REMARK  120  A    between atoms: _269  and  _270
REMARK  121  A    between atoms: _272  and  _274
REMARK  122  A    between atoms: _274  and  _275
REMARK  123  A    between atoms: _274  and  _277
REMARK  124  A    between atoms: _277  and  _278
REMARK  125  A    between atoms: _288  and  _290
REMARK  126  A    between atoms: _290  and  _291
REMARK  127  A    between atoms: _290  and  _293
REMARK  128  A    between atoms: _293  and  _294
REMARK  129  A    between atoms: _297  and  _299
REMARK  130  A    between atoms: _299  and  _300
REMARK  131  A    between atoms: _299  and  _302
REMARK  132  A    between atoms: _302  and  _303
REMARK  133  A    between atoms: _303  and  _304
REMARK  134  A    between atoms: _309  and  _311
REMARK  135  A    between atoms: _311  and  _312
REMARK  136  A    between atoms: _311  and  _314
REMARK  137  A    between atoms: _314  and  _315
REMARK  138  A    between atoms: _318  and  _320
REMARK  139  A    between atoms: _320  and  _321
REMARK  140  A    between atoms: _320  and  _323
REMARK  141  A    between atoms: _323  and  _324
REMARK  142  A    between atoms: _324  and  _325
REMARK  143  A    between atoms: _330  and  _332
REMARK  144  A    between atoms: _332  and  _333
REMARK  145  A    between atoms: _332  and  _335
REMARK  146  A    between atoms: _335  and  _336
REMARK  147  A    between atoms: _342  and  _344
REMARK  148  A    between atoms: _344  and  _345
REMARK  149  A    between atoms: _344  and  _347
REMARK  150  A    between atoms: _349  and  _351
REMARK  151  A    between atoms: _351  and  _352
REMARK  152  A    between atoms: _351  and  _354
REMARK  153  A    between atoms: _354  and  _355
REMARK  154  A    between atoms: _355  and  _356
REMARK  155  A    between atoms: _358  and  _360
REMARK  156  A    between atoms: _360  and  _361
REMARK  157  A    between atoms: _360  and  _363
REMARK  158  A    between atoms: _363  and  _364
REMARK  159  A    between atoms: _369  and  _371
REMARK  160  A    between atoms: _371  and  _372
REMARK  161  A    between atoms: _374  and  _376
REMARK  162  A    between atoms: _376  and  _377
REMARK  163  A    between atoms: _376  and  _379
REMARK  164  A    between atoms: _382  and  _384
REMARK  165  A    between atoms: _384  and  _385
REMARK  166  A    between atoms: _384  and  _387
REMARK  167  A    between atoms: _387  and  _388
REMARK  168  A    between atoms: _391  and  _393
REMARK  169  A    between atoms: _393  and  _394
REMARK  170  A    between atoms: _393  and  _396
REMARK  171  A    between atoms: _396  and  _397
REMARK  172  A    between atoms: _399  and  _401
REMARK  173  A    between atoms: _401  and  _402
REMARK  174  A    between atoms: _401  and  _404
REMARK  175  A    between atoms: _404  and  _405
REMARK  176  A    between atoms: _415  and  _417
REMARK  177  A    between atoms: _417  and  _418
REMARK  178  A    between atoms: _417  and  _420
REMARK  179  A    between atoms: _420  and  _421
REMARK  180  A    between atoms: _423  and  _425
REMARK  181  A    between atoms: _425  and  _426
REMARK  182  A    between atoms: _425  and  _428
REMARK  183  A    between atoms: _428  and  _429
REMARK  184  A    between atoms: _429  and  _430
REMARK  185  A    between atoms: _433  and  _435
REMARK  186  A    between atoms: _435  and  _436
REMARK  187  A    between atoms: _435  and  _438
REMARK  188  A    between atoms: _438  and  _439
REMARK  189  A    between atoms: _439  and  _440
REMARK  190  A    between atoms: _440  and  _441
REMARK                            x       y       z     vdW  Elec       q    Type
REMARK                         _______ _______ _______ _____ _____    ______ ____
ROOT
ATOM      1  C   GLY A   1      22.278  27.982  68.654  0.00  0.00    +0.240 C 
ATOM      2  N   VAL A   2      22.957  28.147  69.782  0.00  0.00    -0.298 N 
ATOM      3  H   VAL A   2      23.413  27.329  70.234  0.00  0.00    +0.150 HD
ATOM      4  O   GLY A   1      21.728  28.919  68.071  0.00  0.00    -0.274 OA
ENDROOT
BRANCH   1   5
ATOM      5  CA  GLY A   1      22.213  26.576  68.088  0.00  0.00    +0.169 C 
BRANCH   5   6
ATOM      6  N   GLY A   1      22.393  26.626  66.649  0.00  0.00    -0.236 NA
ATOM      7  H   GLY A   1      21.627  26.318  66.017  0.00  0.00    +0.142 HD
ENDBRANCH   5   6
ENDBRANCH   1   5
BRANCH   2   8
ATOM      8  CA  VAL A   2      23.069  29.466  70.393  0.00  0.00    +0.137 C 
BRANCH   8   9
ATOM      9  CB  VAL A   2      22.912  29.392  71.926  0.00  0.00    +0.026 C 
ATOM     10  CG2 VAL A   2      23.981  28.483  72.518  0.00  0.00    +0.002 C 
ATOM     11  CG1 VAL A   2      21.524  28.894  72.277  0.00  0.00    +0.002 C 
ENDBRANCH   8   9
BRANCH   8  12
ATOM     12  C   VAL A   2      24.403  30.132  70.075  0.00  0.00    +0.227 C 
ATOM     13  O   VAL A   2      24.709  31.204  70.597  0.00  0.00    -0.286 OA
ENDBRANCH   8  12
ENDBRANCH   2   8
TORSDOF 5
REMARK  Name = ../refined-set-2016/3muz/3muz_pocket.pdb
REMARK  190 active torsions:
REMARK  status: ('A' for Active; 'I' for Inactive)
REMARK    1  A    between atoms: _1  and  _3
REMARK    2  A    between atoms: _3  and  _4
REMARK    3  A    between atoms: _3  and  _6
REMARK    4  A    between atoms: _6  and  _7
REMARK    5  A    between atoms: _12  and  _13
REMARK    6  A    between atoms: _15  and  _17
REMARK    7  A    between atoms: _17  and  _18
REMARK    8  A    between atoms: _17  and  _20
REMARK    9  A    between atoms: _20  and  _21
REMARK   10  A    between atoms: _26  and  _28
REMARK   11  A    between atoms: _28  and  _29
REMARK   12  A    between atoms: _28  and  _31
REMARK   13  A    between atoms: _34  and  _36
REMARK   14  A    between atoms: _36  and  _37
REMARK   15  A    between atoms: _36  and  _39
REMARK   16  A    between atoms: _39  and  _40
REMARK   17  A    between atoms: _43  and  _45
REMARK   18  A    between atoms: _45  and  _46
REMARK   19  A    between atoms: _45  and  _48
REMARK   20  A    between atoms: _48  and  _49
REMARK   21  A    between atoms: _52  and  _54
REMARK   22  A    between atoms: _54  and  _55
REMARK   23  A    between atoms: _54  and  _57
REMARK   24  A    between atoms: _57  and  _58
REMARK   25  A    between atoms: _58  and  _59
REMARK   26  A    between atoms: _64  and  _66
REMARK   27  A    between atoms: _66  and  _67
REMARK   28  A    between atoms: _66  and  _69
REMARK   29  A    between atoms: _69  and  _70
REMARK   30  A    between atoms: _73  and  _75
REMARK   31  A    between atoms: _75  and  _76
REMARK   32  A    between atoms: _75  and  _78
REMARK   33  A    between atoms: _78  and  _79
REMARK   34  A    between atoms: _79  and  _80
REMARK   35  A    between atoms: _82  and  _84
REMARK   36  A    between atoms: _84  and  _85
REMARK   37  A    between atoms: _84  and  _87
REMARK   38  A    between atoms: _87  and  _88
REMARK   39  A    between atoms: _93  and  _95
REMARK   40  A    between atoms: _95  and  _96
REMARK   41  A    between atoms: _95  and  _98
REMARK   42  A    between atoms: _98  and  _99
REMARK   43  A    between atoms: _104  and  _106
REMARK   44  A    between atoms: _106  and  _107
REMARK   45  A    between atoms: _106  and  _109
REMARK   46  A    between atoms: _109  and  _110
REMARK   47  A    between atoms: _110  and  _111
REMARK   48  A    between atoms: _111  and  _112
REMARK   49  A    between atoms: _121  and  _123
REMARK   50  A    between atoms: _123  and  _124
REMARK   51  A    between atoms: _123  and  _126
REMARK   52  A    between atoms: _126  and  _127
REMARK   53  A    between atoms: _132  and  _134
REMARK   54  A    between atoms: _134  and  _135
REMARK   55  A    between atoms: _134  and  _137
REMARK   56  A    between atoms: _137  and  _138
REMARK   57  A    between atoms: _138  and  _139
REMARK   58  A    between atoms: _139  and  _141
REMARK   59  A    between atoms: _141  and  MG_450
REMARK   60  A    between atoms: _142  and  _144
REMARK   61  A    between atoms: _144  and  _145
REMARK   62  A    between atoms: _144  and  _147
REMARK   63  A    between atoms: _147  and  _148
REMARK   64  A    between atoms: _153  and  _155
REMARK   65  A    between atoms: _155  and  _156
REMARK   66  A    between atoms: _155  and  _158
REMARK   67  A    between atoms: _158  and  _159
REMARK   68  A    between atoms: _159  and  _160
REMARK   69  A    between atoms: _162  and  _164
REMARK   70  A    between atoms: _164  and  _165
REMARK   71  A    between atoms: _164  and  _167
REMARK   72  A    between atoms: _167  and  _168
REMARK   73  A    between atoms: _173  and  _175
REMARK   74  A    between atoms: _175  and  _176
REMARK   75  A    between atoms: _175  and  _178
REMARK   76  A    between atoms: _178  and  _179
REMARK   77  A    between atoms: _179  and  _180
REMARK   78  A    between atoms: _180  and  _181
REMARK   79  A    between atoms: _181  and  MG_450
REMARK   80  A    between atoms: _183  and  _185
REMARK   81  A    between atoms: _185  and  _186
REMARK   82  A    between atoms: _185  and  _188
REMARK   83  A    between atoms: _188  and  _189
REMARK   84  A    between atoms: _189  and  _190
REMARK   85  A    between atoms: _193  and  _195
REMARK   86  A    between atoms: _195  and  _196
REMARK   87  A    between atoms: _195  and  _198
REMARK   88  A    between atoms: _198  and  _199
REMARK   89  A    between atoms: _199  and  _200
REMARK   90  A    between atoms: _202  and  _204
REMARK   91  A    between atoms: _204  and  _205
REMARK   92  A    between atoms: _204  and  _207
REMARK   93  A    between atoms: _207  and  _208
REMARK   94  A    between atoms: _213  and  _214
REMARK   95  A    between atoms: _216  and  _218
REMARK   96  A    between atoms: _218  and  _219
REMARK   97  A    between atoms: _218  and  _221
REMARK   98  A    between atoms: _221  and  _222
REMARK   99  A    between atoms: _222  and  _223
REMARK  100  A    between atoms: _223  and  _224
REMARK  101  A    between atoms: _224  and  _225
REMARK  102  A    between atoms: _229  and  _231
REMARK  103  A    between atoms: _231  and  _232
REMARK  104  A    between atoms: _231  and  _234
REMARK  105  A    between atoms: _236  and  _238
REMARK  106  A    between atoms: _238  and  _239
REMARK  107  A    between atoms: _238  and  _241
REMARK  108  A    between atoms: _241  and  _242
REMARK  109  A    between atoms: _242  and  _243
REMARK  110  A    between atoms: _246  and  _248
REMARK  111  A    between atoms: _248  and  _249
REMARK  112  A    between atoms: _248  and  _251
REMARK  113  A    between atoms: _251  and  _252
REMARK  114  A    between atoms: _257  and  _259
REMARK  115  A    between atoms: _259  and  _260
REMARK  116  A    between atoms: _263  and  _265
REMARK  117  A    between atoms: _265  and  _266
REMARK  118  A    between atoms: _265  and  _268
REMARK  119  A    between atoms: _268  and  _269
REMARK  120  A    between atoms: _269  and  _270
REMARK  121  A    between atoms: _272  and  _274
REMARK  122  A    between atoms: _274  and  _275
REMARK  123  A    between atoms: _274  and  _277
REMARK  124  A    between atoms: _277  and  _278
REMARK  125  A    between atoms: _288  and  _290
REMARK  126  A    between atoms: _290  and  _291
REMARK  127  A    between atoms: _290  and  _293
REMARK  128  A    between atoms: _293  and  _294
REMARK  129  A    between atoms: _297  and  _299
REMARK  130  A    between atoms: _299  and  _300
REMARK  131  A    between atoms: _299  and  _302
REMARK  132  A    between atoms: _302  and  _303
REMARK  133  A    between atoms: _303  and  _304
REMARK  134  A    between atoms: _309  and  _311
REMARK  135  A    between atoms: _311  and  _312
REMARK  136  A    between atoms: _311  and  _314
REMARK  137  A    between atoms: _314  and  _315
REMARK  138  A    between atoms: _318  and  _320
REMARK  139  A    between atoms: _320  and  _321
REMARK  140  A    between atoms: _320  and  _323
REMARK  141  A    between atoms: _323  and  _324
REMARK  142  A    between atoms: _324  and  _325
REMARK  143  A    between atoms: _330  and  _332
REMARK  144  A    between atoms: _332  and  _333
REMARK  145  A    between atoms: _332  and  _335
REMARK  146  A    between atoms: _335  and  _336
REMARK  147  A    between atoms: _342  and  _344
REMARK  148  A    between atoms: _344  and  _345
REMARK  149  A    between atoms: _344  and  _347
REMARK  150  A    between atoms: _349  and  _351
REMARK  151  A    between atoms: _351  and  _352
REMARK  152  A    between atoms: _351  and  _354
REMARK  153  A    between atoms: _354  and  _355
REMARK  154  A    between atoms: _355  and  _356
REMARK  155  A    between atoms: _358  and  _360
REMARK  156  A    between atoms: _360  and  _361
REMARK  157  A    between atoms: _360  and  _363
REMARK  158  A    between atoms: _363  and  _364
REMARK  159  A    between atoms: _369  and  _371
REMARK  160  A    between atoms: _371  and  _372
REMARK  161  A    between atoms: _374  and  _376
REMARK  162  A    between atoms: _376  and  _377
REMARK  163  A    between atoms: _376  and  _379
REMARK  164  A    between atoms: _382  and  _384
REMARK  165  A    between atoms: _384  and  _385
REMARK  166  A    between atoms: _384  and  _387
REMARK  167  A    between atoms: _387  and  _388
REMARK  168  A    between atoms: _391  and  _393
REMARK  169  A    between atoms: _393  and  _394
REMARK  170  A    between atoms: _393  and  _396
REMARK  171  A    between atoms: _396  and  _397
REMARK  172  A    between atoms: _399  and  _401
REMARK  173  A    between atoms: _401  and  _402
REMARK  174  A    between atoms: _401  and  _404
REMARK  175  A    between atoms: _404  and  _405
REMARK  176  A    between atoms: _415  and  _417
REMARK  177  A    between atoms: _417  and  _418
REMARK  178  A    between atoms: _417  and  _420
REMARK  179  A    between atoms: _420  and  _421
REMARK  180  A    between atoms: _423  and  _425
REMARK  181  A    between atoms: _425  and  _426
REMARK  182  A    between atoms: _425  and  _428
REMARK  183  A    between atoms: _428  and  _429
REMARK  184  A    between atoms: _429  and  _430
REMARK  185  A    between atoms: _433  and  _435
REMARK  186  A    between atoms: _435  and  _436
REMARK  187  A    between atoms: _435  and  _438
REMARK  188  A    between atoms: _438  and  _439
REMARK  189  A    between atoms: _439  and  _440
REMARK  190  A    between atoms: _440  and  _441
REMARK                            x       y       z     vdW  Elec       q    Type
REMARK                         _______ _______ _______ _____ _____    ______ ____
ROOT
ATOM      1  CA  TRP A   3      20.449  24.965  71.307  0.00  0.00    +0.153 C 
ENDROOT
BRANCH   1   3
ATOM      2  C   SER A   2      18.788  24.918  69.556  0.00  0.00    +0.243 C 
ATOM      3  N   TRP A   3      19.315  24.348  70.633  0.00  0.00    -0.297 N 
ATOM      4  H   TRP A   3      18.917  23.459  70.996  0.00  0.00    +0.150 HD
ATOM      5  O   SER A   2      19.222  25.972  69.091  0.00  0.00    -0.273 OA
BRANCH   2   6
ATOM      6  CA  SER A   2      17.606  24.212  68.894  0.00  0.00    +0.178 C 
BRANCH   6   8
ATOM      7  C   ASP A   1      16.648  22.131  69.656  0.00  0.00    +0.239 C 
ATOM      8  N   SER A   2      16.796  23.438  69.824  0.00  0.00    -0.295 N 
ATOM      9  H   SER A   2      16.331  23.913  70.624  0.00  0.00    +0.150 HD
ATOM     10  O   ASP A   1      17.159  21.519  68.716  0.00  0.00    -0.274 OA
BRANCH   7  11
ATOM     11  CA  ASP A   1      15.764  21.389  70.647  0.00  0.00    +0.156 C 
BRANCH  11  12
ATOM     12  N   ASP A   1      15.599  20.066  70.059  0.00  0.00    -0.238 NA
ATOM     13  H   ASP A   1      16.251  19.770  69.305  0.00  0.00    +0.142 HD
ENDBRANCH  11  12
BRANCH  11  14
ATOM     14  CB  ASP A   1      16.336  21.357  72.086  0.00  0.00    +0.140 C 
BRANCH  14  15
ATOM     15  CG  ASP A   1      17.787  20.947  72.158  0.00  0.00    +0.367 C 
ATOM     16  OD2 ASP A   1      18.066  19.924  72.819  0.00  0.00    -0.246 OA
ATOM     17  OD1 ASP A   1      18.649  21.646  71.583  0.00  0.00    -0.246 OA
ENDBRANCH  14  15
ENDBRANCH  11  14
ENDBRANCH   7  11
ENDBRANCH   6   8
BRANCH   6  18
ATOM     18  CB  SER A   2      16.723  25.240  68.174  0.00  0.00    +0.166 C 
BRANCH  18  19
ATOM     19  OG  SER A   2      15.619  24.614  67.537  0.00  0.00    -0.380 OA
ATOM     20  H   SER A   2      15.951  23.961  66.871  0.00  0.00    +0.211 HD
ENDBRANCH  18  19
ENDBRANCH   6  18
ENDBRANCH   2   6
ENDBRANCH   1   3
BRANCH   1  21
ATOM     21  C   TRP A   3      21.554  23.973  71.649  0.00  0.00    +0.241 C 
ATOM     22  O   TRP A   3      22.462  24.275  72.418  0.00  0.00    -0.273 OA
ATOM     23  N   SER A   4      21.466  22.789  71.053  0.00  0.00    -0.296 N 
ATOM     24  H   SER A   4      20.656  22.607  70.426  0.00  0.00    +0.150 HD
BRANCH  23  25
ATOM     25  CA  SER A   4      22.455  21.734  71.239  0.00  0.00    +0.166 C 
BRANCH  25  26
ATOM     26  C   SER A   4      22.271  20.770  70.079  0.00  0.00    +0.229 C 
ATOM     27  O   SER A   4      21.164  20.630  69.554  0.00  0.00    -0.286 OA
ENDBRANCH  25  26
BRANCH  25  28
ATOM     28  CB  SER A   4      22.241  20.997  72.568  0.00  0.00    +0.165 C 
BRANCH  28  29
ATOM     29  OG  SER A   4      21.023  20.272  72.562  0.00  0.00    -0.380 OA
ATOM     30  H   SER A   4      20.912  19.808  73.430  0.00  0.00    +0.211 HD
ENDBRANCH  28  29
ENDBRANCH  25  28
ENDBRANCH  23  25
ENDBRANCH   1  21
BRANCH   1  31
ATOM     31  CB  TRP A   3      19.980  25.720  72.556  0.00  0.00    +0.057 C 
BRANCH  31  32
ATOM     32  CG  TRP A   3      18.960  24.991  73.383  0.00  0.00    -0.002 A 
ATOM     33  CD1 TRP A   3      19.191  24.233  74.499  0.00  0.00    +0.068 A 
ATOM     34  NE1 TRP A   3      18.003  23.762  75.008  0.00  0.00    -0.352 N 
ATOM     35  HE1 TRP A   3      17.901  23.166  75.854  0.00  0.00    +0.166 HD
ATOM     36  CE2 TRP A   3      16.976  24.206  74.217  0.00  0.00    +0.056 A 
ATOM     37  CZ2 TRP A   3      15.597  23.990  74.323  0.00  0.00    +0.017 A 
ATOM     38  CH2 TRP A   3      14.792  24.564  73.375  0.00  0.00    +0.001 A 
ATOM     39  CZ3 TRP A   3      15.326  25.345  72.329  0.00  0.00    +0.000 A 
ATOM     40  CE3 TRP A   3      16.698  25.559  72.223  0.00  0.00    +0.001 A 
ATOM     41  CD2 TRP A   3      17.545  24.984  73.180  0.00  0.00    +0.013 A 
ENDBRANCH  31  32
ENDBRANCH   1  31
TORSDOF 16
REMARK  Name = ../refined-set-2016/3muz/3muz_pocket.pdb
REMARK  190 active torsions:
REMARK  status: ('A' for Active; 'I' for Inactive)
REMARK    1  A    between atoms: _1  and  _3
REMARK    2  A    between atoms: _3  and  _4
REMARK    3  A    between atoms: _3  and  _6
REMARK    4  A    between atoms: _6  and  _7
REMARK    5  A    between atoms: _12  and  _13
REMARK    6  A    between atoms: _15  and  _17
REMARK    7  A    between atoms: _17  and  _18
REMARK    8  A    between atoms: _17  and  _20
REMARK    9  A    between atoms: _20  and  _21
REMARK   10  A    between atoms: _26  and  _28
REMARK   11  A    between atoms: _28  and  _29
REMARK   12  A    between atoms: _28  and  _31
REMARK   13  A    between atoms: _34  and  _36
REMARK   14  A    between atoms: _36  and  _37
REMARK   15  A    between atoms: _36  and  _39
REMARK   16  A    between atoms: _39  and  _40
REMARK   17  A    between atoms: _43  and  _45
REMARK   18  A    between atoms: _45  and  _46
REMARK   19  A    between atoms: _45  and  _48
REMARK   20  A    between atoms: _48  and  _49
REMARK   21  A    between atoms: _52  and  _54
REMARK   22  A    between atoms: _54  and  _55
REMARK   23  A    between atoms: _54  and  _57
REMARK   24  A    between atoms: _57  and  _58
REMARK   25  A    between atoms: _58  and  _59
REMARK   26  A    between atoms: _64  and  _66
REMARK   27  A    between atoms: _66  and  _67
REMARK   28  A    between atoms: _66  and  _69
REMARK   29  A    between atoms: _69  and  _70
REMARK   30  A    between atoms: _73  and  _75
REMARK   31  A    between atoms: _75  and  _76
REMARK   32  A    between atoms: _75  and  _78
REMARK   33  A    between atoms: _78  and  _79
REMARK   34  A    between atoms: _79  and  _80
REMARK   35  A    between atoms: _82  and  _84
REMARK   36  A    between atoms: _84  and  _85
REMARK   37  A    between atoms: _84  and  _87
REMARK   38  A    between atoms: _87  and  _88
REMARK   39  A    between atoms: _93  and  _95
REMARK   40  A    between atoms: _95  and  _96
REMARK   41  A    between atoms: _95  and  _98
REMARK   42  A    between atoms: _98  and  _99
REMARK   43  A    between atoms: _104  and  _106
REMARK   44  A    between atoms: _106  and  _107
REMARK   45  A    between atoms: _106  and  _109
REMARK   46  A    between atoms: _109  and  _110
REMARK   47  A    between atoms: _110  and  _111
REMARK   48  A    between atoms: _111  and  _112
REMARK   49  A    between atoms: _121  and  _123
REMARK   50  A    between atoms: _123  and  _124
REMARK   51  A    between atoms: _123  and  _126
REMARK   52  A    between atoms: _126  and  _127
REMARK   53  A    between atoms: _132  and  _134
REMARK   54  A    between atoms: _134  and  _135
REMARK   55  A    between atoms: _134  and  _137
REMARK   56  A    between atoms: _137  and  _138
REMARK   57  A    between atoms: _138  and  _139
REMARK   58  A    between atoms: _139  and  _141
REMARK   59  A    between atoms: _141  and  MG_450
REMARK   60  A    between atoms: _142  and  _144
REMARK   61  A    between atoms: _144  and  _145
REMARK   62  A    between atoms: _144  and  _147
REMARK   63  A    between atoms: _147  and  _148
REMARK   64  A    between atoms: _153  and  _155
REMARK   65  A    between atoms: _155  and  _156
REMARK   66  A    between atoms: _155  and  _158
REMARK   67  A    between atoms: _158  and  _159
REMARK   68  A    between atoms: _159  and  _160
REMARK   69  A    between atoms: _162  and  _164
REMARK   70  A    between atoms: _164  and  _165
REMARK   71  A    between atoms: _164  and  _167
REMARK   72  A    between atoms: _167  and  _168
REMARK   73  A    between atoms: _173  and  _175
REMARK   74  A    between atoms: _175  and  _176
REMARK   75  A    between atoms: _175  and  _178
REMARK   76  A    between atoms: _178  and  _179
REMARK   77  A    between atoms: _179  and  _180
REMARK   78  A    between atoms: _180  and  _181
REMARK   79  A    between atoms: _181  and  MG_450
REMARK   80  A    between atoms: _183  and  _185
REMARK   81  A    between atoms: _185  and  _186
REMARK   82  A    between atoms: _185  and  _188
REMARK   83  A    between atoms: _188  and  _189
REMARK   84  A    between atoms: _189  and  _190
REMARK   85  A    between atoms: _193  and  _195
REMARK   86  A    between atoms: _195  and  _196
REMARK   87  A    between atoms: _195  and  _198
REMARK   88  A    between atoms: _198  and  _199
REMARK   89  A    between atoms: _199  and  _200
REMARK   90  A    between atoms: _202  and  _204
REMARK   91  A    between atoms: _204  and  _205
REMARK   92  A    between atoms: _204  and  _207
REMARK   93  A    between atoms: _207  and  _208
REMARK   94  A    between atoms: _213  and  _214
REMARK   95  A    between atoms: _216  and  _218
REMARK   96  A    between atoms: _218  and  _219
REMARK   97  A    between atoms: _218  and  _221
REMARK   98  A    between atoms: _221  and  _222
REMARK   99  A    between atoms: _222  and  _223
REMARK  100  A    between atoms: _223  and  _224
REMARK  101  A    between atoms: _224  and  _225
REMARK  102  A    between atoms: _229  and  _231
REMARK  103  A    between atoms: _231  and  _232
REMARK  104  A    between atoms: _231  and  _234
REMARK  105  A    between atoms: _236  and  _238
REMARK  106  A    between atoms: _238  and  _239
REMARK  107  A    between atoms: _238  and  _241
REMARK  108  A    between atoms: _241  and  _242
REMARK  109  A    between atoms: _242  and  _243
REMARK  110  A    between atoms: _246  and  _248
REMARK  111  A    between atoms: _248  and  _249
REMARK  112  A    between atoms: _248  and  _251
REMARK  113  A    between atoms: _251  and  _252
REMARK  114  A    between atoms: _257  and  _259
REMARK  115  A    between atoms: _259  and  _260
REMARK  116  A    between atoms: _263  and  _265
REMARK  117  A    between atoms: _265  and  _266
REMARK  118  A    between atoms: _265  and  _268
REMARK  119  A    between atoms: _268  and  _269
REMARK  120  A    between atoms: _269  and  _270
REMARK  121  A    between atoms: _272  and  _274
REMARK  122  A    between atoms: _274  and  _275
REMARK  123  A    between atoms: _274  and  _277
REMARK  124  A    between atoms: _277  and  _278
REMARK  125  A    between atoms: _288  and  _290
REMARK  126  A    between atoms: _290  and  _291
REMARK  127  A    between atoms: _290  and  _293
REMARK  128  A    between atoms: _293  and  _294
REMARK  129  A    between atoms: _297  and  _299
REMARK  130  A    between atoms: _299  and  _300
REMARK  131  A    between atoms: _299  and  _302
REMARK  132  A    between atoms: _302  and  _303
REMARK  133  A    between atoms: _303  and  _304
REMARK  134  A    between atoms: _309  and  _311
REMARK  135  A    between atoms: _311  and  _312
REMARK  136  A    between atoms: _311  and  _314
REMARK  137  A    between atoms: _314  and  _315
REMARK  138  A    between atoms: _318  and  _320
REMARK  139  A    between atoms: _320  and  _321
REMARK  140  A    between atoms: _320  and  _323
REMARK  141  A    between atoms: _323  and  _324
REMARK  142  A    between atoms: _324  and  _325
REMARK  143  A    between atoms: _330  and  _332
REMARK  144  A    between atoms: _332  and  _333
REMARK  145  A    between atoms: _332  and  _335
REMARK  146  A    between atoms: _335  and  _336
REMARK  147  A    between atoms: _342  and  _344
REMARK  148  A    between atoms: _344  and  _345
REMARK  149  A    between atoms: _344  and  _347
REMARK  150  A    between atoms: _349  and  _351
REMARK  151  A    between atoms: _351  and  _352
REMARK  152  A    between atoms: _351  and  _354
REMARK  153  A    between atoms: _354  and  _355
REMARK  154  A    between atoms: _355  and  _356
REMARK  155  A    between atoms: _358  and  _360
REMARK  156  A    between atoms: _360  and  _361
REMARK  157  A    between atoms: _360  and  _363
REMARK  158  A    between atoms: _363  and  _364
REMARK  159  A    between atoms: _369  and  _371
REMARK  160  A    between atoms: _371  and  _372
REMARK  161  A    between atoms: _374  and  _376
REMARK  162  A    between atoms: _376  and  _377
REMARK  163  A    between atoms: _376  and  _379
REMARK  164  A    between atoms: _382  and  _384
REMARK  165  A    between atoms: _384  and  _385
REMARK  166  A    between atoms: _384  and  _387
REMARK  167  A    between atoms: _387  and  _388
REMARK  168  A    between atoms: _391  and  _393
REMARK  169  A    between atoms: _393  and  _394
REMARK  170  A    between atoms: _393  and  _396
REMARK  171  A    between atoms: _396  and  _397
REMARK  172  A    between atoms: _399  and  _401
REMARK  173  A    between atoms: _401  and  _402
REMARK  174  A    between atoms: _401  and  _404
REMARK  175  A    between atoms: _404  and  _405
REMARK  176  A    between atoms: _415  and  _417
REMARK  177  A    between atoms: _417  and  _418
REMARK  178  A    between atoms: _417  and  _420
REMARK  179  A    between atoms: _420  and  _421
REMARK  180  A    between atoms: _423  and  _425
REMARK  181  A    between atoms: _425  and  _426
REMARK  182  A    between atoms: _425  and  _428
REMARK  183  A    between atoms: _428  and  _429
REMARK  184  A    between atoms: _429  and  _430
REMARK  185  A    between atoms: _433  and  _435
REMARK  186  A    between atoms: _435  and  _436
REMARK  187  A    between atoms: _435  and  _438
REMARK  188  A    between atoms: _438  and  _439
REMARK  189  A    between atoms: _439  and  _440
REMARK  190  A    between atoms: _440  and  _441
REMARK                            x       y       z     vdW  Elec       q    Type
REMARK                         _______ _______ _______ _____ _____    ______ ____
ROOT
ATOM      1  CA  ARG A   2      20.434  28.622  86.032  0.00  0.00    +0.137 C 
ENDROOT
BRANCH   1   3
ATOM      2  C   GLU A   1      20.007  26.501  84.934  0.00  0.00    +0.238 C 
ATOM      3  N   ARG A   2      19.745  27.337  85.933  0.00  0.00    -0.298 N 
ATOM      4  H   ARG A   2      19.042  27.074  86.653  0.00  0.00    +0.150 HD
ATOM      5  O   GLU A   1      20.835  26.751  84.061  0.00  0.00    -0.274 OA
BRANCH   2   6
ATOM      6  CA  GLU A   1      19.231  25.186  84.900  0.00  0.00    +0.145 C 
BRANCH   6   7
ATOM      7  N   GLU A   1      18.569  24.800  86.148  0.00  0.00    -0.238 NA
ATOM      8  H   GLU A   1      17.538  24.663  86.150  0.00  0.00    +0.142 HD
ENDBRANCH   6   7
BRANCH   6   9
ATOM      9  CB  GLU A   1      18.218  25.238  83.748  0.00  0.00    +0.038 C 
BRANCH   9  10
ATOM     10  CG  GLU A   1      17.594  23.889  83.403  0.00  0.00    +0.116 C 
BRANCH  10  11
ATOM     11  CD  GLU A   1      16.355  23.562  84.228  0.00  0.00    +0.365 C 
ATOM     12  OE2 GLU A   1      16.202  24.104  85.344  0.00  0.00    -0.246 OA
ATOM     13  OE1 GLU A   1      15.534  22.743  83.756  0.00  0.00    -0.246 OA
ENDBRANCH  10  11
ENDBRANCH   9  10
ENDBRANCH   6   9
ENDBRANCH   2   6
ENDBRANCH   1   3
BRANCH   1  14
ATOM     14  C   ARG A   2      21.572  28.593  87.045  0.00  0.00    +0.227 C 
ATOM     15  O   ARG A   2      22.234  29.606  87.273  0.00  0.00    -0.286 OA
ENDBRANCH   1  14
BRANCH   1  16
ATOM     16  CB  ARG A   2      19.438  29.733  86.396  0.00  0.00    +0.031 C 
BRANCH  16  17
ATOM     17  CG  ARG A   2      18.389  30.003  85.325  0.00  0.00    +0.045 C 
BRANCH  17  18
ATOM     18  CD  ARG A   2      18.984  30.744  84.142  0.00  0.00    +0.174 C 
BRANCH  18  19
ATOM     19  NE  ARG A   2      19.211  32.159  84.443  0.00  0.00    -0.265 N 
ATOM     20  HE  ARG A   2      18.824  32.536  85.332  0.00  0.00    +0.259 HD
ATOM     21  CZ  ARG A   2      19.880  32.992  83.654  0.00  0.00    +0.342 C 
ATOM     22  NH2 ARG A   2      20.031  34.267  84.000  0.00  0.00    -0.292 N 
ATOM     23 HH21 ARG A   2      19.624  34.616  84.892  0.00  0.00    +0.255 HD
ATOM     24 HH22 ARG A   2      20.556  34.916  83.379  0.00  0.00    +0.255 HD
ATOM     25  NH1 ARG A   2      20.395  32.553  82.514  0.00  0.00    -0.292 N 
ATOM     26 HH11 ARG A   2      20.275  31.557  82.238  0.00  0.00    +0.255 HD
ATOM     27 HH12 ARG A   2      20.919  33.204  81.895  0.00  0.00    +0.255 HD
ENDBRANCH  18  19
ENDBRANCH  17  18
ENDBRANCH  16  17
ENDBRANCH   1  16
TORSDOF 11
REMARK  Name = ../refined-set-2016/3muz/3muz_pocket.pdb
REMARK  190 active torsions:
REMARK  status: ('A' for Active; 'I' for Inactive)
REMARK    1  A    between atoms: _1  and  _3
REMARK    2  A    between atoms: _3  and  _4
REMARK    3  A    between atoms: _3  and  _6
REMARK    4  A    between atoms: _6  and  _7
REMARK    5  A    between atoms: _12  and  _13
REMARK    6  A    between atoms: _15  and  _17
REMARK    7  A    between atoms: _17  and  _18
REMARK    8  A    between atoms: _17  and  _20
REMARK    9  A    between atoms: _20  and  _21
REMARK   10  A    between atoms: _26  and  _28
REMARK   11  A    between atoms: _28  and  _29
REMARK   12  A    between atoms: _28  and  _31
REMARK   13  A    between atoms: _34  and  _36
REMARK   14  A    between atoms: _36  and  _37
REMARK   15  A    between atoms: _36  and  _39
REMARK   16  A    between atoms: _39  and  _40
REMARK   17  A    between atoms: _43  and  _45
REMARK   18  A    between atoms: _45  and  _46
REMARK   19  A    between atoms: _45  and  _48
REMARK   20  A    between atoms: _48  and  _49
REMARK   21  A    between atoms: _52  and  _54
REMARK   22  A    between atoms: _54  and  _55
REMARK   23  A    between atoms: _54  and  _57
REMARK   24  A    between atoms: _57  and  _58
REMARK   25  A    between atoms: _58  and  _59
REMARK   26  A    between atoms: _64  and  _66
REMARK   27  A    between atoms: _66  and  _67
REMARK   28  A    between atoms: _66  and  _69
REMARK   29  A    between atoms: _69  and  _70
REMARK   30  A    between atoms: _73  and  _75
REMARK   31  A    between atoms: _75  and  _76
REMARK   32  A    between atoms: _75  and  _78
REMARK   33  A    between atoms: _78  and  _79
REMARK   34  A    between atoms: _79  and  _80
REMARK   35  A    between atoms: _82  and  _84
REMARK   36  A    between atoms: _84  and  _85
REMARK   37  A    between atoms: _84  and  _87
REMARK   38  A    between atoms: _87  and  _88
REMARK   39  A    between atoms: _93  and  _95
REMARK   40  A    between atoms: _95  and  _96
REMARK   41  A    between atoms: _95  and  _98
REMARK   42  A    between atoms: _98  and  _99
REMARK   43  A    between atoms: _104  and  _106
REMARK   44  A    between atoms: _106  and  _107
REMARK   45  A    between atoms: _106  and  _109
REMARK   46  A    between atoms: _109  and  _110
REMARK   47  A    between atoms: _110  and  _111
REMARK   48  A    between atoms: _111  and  _112
REMARK   49  A    between atoms: _121  and  _123
REMARK   50  A    between atoms: _123  and  _124
REMARK   51  A    between atoms: _123  and  _126
REMARK   52  A    between atoms: _126  and  _127
REMARK   53  A    between atoms: _132  and  _134
REMARK   54  A    between atoms: _134  and  _135
REMARK   55  A    between atoms: _134  and  _137
REMARK   56  A    between atoms: _137  and  _138
REMARK   57  A    between atoms: _138  and  _139
REMARK   58  A    between atoms: _139  and  _141
REMARK   59  A    between atoms: _141  and  MG_450
REMARK   60  A    between atoms: _142  and  _144
REMARK   61  A    between atoms: _144  and  _145
REMARK   62  A    between atoms: _144  and  _147
REMARK   63  A    between atoms: _147  and  _148
REMARK   64  A    between atoms: _153  and  _155
REMARK   65  A    between atoms: _155  and  _156
REMARK   66  A    between atoms: _155  and  _158
REMARK   67  A    between atoms: _158  and  _159
REMARK   68  A    between atoms: _159  and  _160
REMARK   69  A    between atoms: _162  and  _164
REMARK   70  A    between atoms: _164  and  _165
REMARK   71  A    between atoms: _164  and  _167
REMARK   72  A    between atoms: _167  and  _168
REMARK   73  A    between atoms: _173  and  _175
REMARK   74  A    between atoms: _175  and  _176
REMARK   75  A    between atoms: _175  and  _178
REMARK   76  A    between atoms: _178  and  _179
REMARK   77  A    between atoms: _179  and  _180
REMARK   78  A    between atoms: _180  and  _181
REMARK   79  A    between atoms: _181  and  MG_450
REMARK   80  A    between atoms: _183  and  _185
REMARK   81  A    between atoms: _185  and  _186
REMARK   82  A    between atoms: _185  and  _188
REMARK   83  A    between atoms: _188  and  _189
REMARK   84  A    between atoms: _189  and  _190
REMARK   85  A    between atoms: _193  and  _195
REMARK   86  A    between atoms: _195  and  _196
REMARK   87  A    between atoms: _195  and  _198
REMARK   88  A    between atoms: _198  and  _199
REMARK   89  A    between atoms: _199  and  _200
REMARK   90  A    between atoms: _202  and  _204
REMARK   91  A    between atoms: _204  and  _205
REMARK   92  A    between atoms: _204  and  _207
REMARK   93  A    between atoms: _207  and  _208
REMARK   94  A    between atoms: _213  and  _214
REMARK   95  A    between atoms: _216  and  _218
REMARK   96  A    between atoms: _218  and  _219
REMARK   97  A    between atoms: _218  and  _221
REMARK   98  A    between atoms: _221  and  _222
REMARK   99  A    between atoms: _222  and  _223
REMARK  100  A    between atoms: _223  and  _224
REMARK  101  A    between atoms: _224  and  _225
REMARK  102  A    between atoms: _229  and  _231
REMARK  103  A    between atoms: _231  and  _232
REMARK  104  A    between atoms: _231  and  _234
REMARK  105  A    between atoms: _236  and  _238
REMARK  106  A    between atoms: _238  and  _239
REMARK  107  A    between atoms: _238  and  _241
REMARK  108  A    between atoms: _241  and  _242
REMARK  109  A    between atoms: _242  and  _243
REMARK  110  A    between atoms: _246  and  _248
REMARK  111  A    between atoms: _248  and  _249
REMARK  112  A    between atoms: _248  and  _251
REMARK  113  A    between atoms: _251  and  _252
REMARK  114  A    between atoms: _257  and  _259
REMARK  115  A    between atoms: _259  and  _260
REMARK  116  A    between atoms: _263  and  _265
REMARK  117  A    between atoms: _265  and  _266
REMARK  118  A    between atoms: _265  and  _268
REMARK  119  A    between atoms: _268  and  _269
REMARK  120  A    between atoms: _269  and  _270
REMARK  121  A    between atoms: _272  and  _274
REMARK  122  A    between atoms: _274  and  _275
REMARK  123  A    between atoms: _274  and  _277
REMARK  124  A    between atoms: _277  and  _278
REMARK  125  A    between atoms: _288  and  _290
REMARK  126  A    between atoms: _290  and  _291
REMARK  127  A    between atoms: _290  and  _293
REMARK  128  A    between atoms: _293  and  _294
REMARK  129  A    between atoms: _297  and  _299
REMARK  130  A    between atoms: _299  and  _300
REMARK  131  A    between atoms: _299  and  _302
REMARK  132  A    between atoms: _302  and  _303
REMARK  133  A    between atoms: _303  and  _304
REMARK  134  A    between atoms: _309  and  _311
REMARK  135  A    between atoms: _311  and  _312
REMARK  136  A    between atoms: _311  and  _314
REMARK  137  A    between atoms: _314  and  _315
REMARK  138  A    between atoms: _318  and  _320
REMARK  139  A    between atoms: _320  and  _321
REMARK  140  A    between atoms: _320  and  _323
REMARK  141  A    between atoms: _323  and  _324
REMARK  142  A    between atoms: _324  and  _325
REMARK  143  A    between atoms: _330  and  _332
REMARK  144  A    between atoms: _332  and  _333
REMARK  145  A    between atoms: _332  and  _335
REMARK  146  A    between atoms: _335  and  _336
REMARK  147  A    between atoms: _342  and  _344
REMARK  148  A    between atoms: _344  and  _345
REMARK  149  A    between atoms: _344  and  _347
REMARK  150  A    between atoms: _349  and  _351
REMARK  151  A    between atoms: _351  and  _352
REMARK  152  A    between atoms: _351  and  _354
REMARK  153  A    between atoms: _354  and  _355
REMARK  154  A    between atoms: _355  and  _356
REMARK  155  A    between atoms: _358  and  _360
REMARK  156  A    between atoms: _360  and  _361
REMARK  157  A    between atoms: _360  and  _363
REMARK  158  A    between atoms: _363  and  _364
REMARK  159  A    between atoms: _369  and  _371
REMARK  160  A    between atoms: _371  and  _372
REMARK  161  A    between atoms: _374  and  _376
REMARK  162  A    between atoms: _376  and  _377
REMARK  163  A    between atoms: _376  and  _379
REMARK  164  A    between atoms: _382  and  _384
REMARK  165  A    between atoms: _384  and  _385
REMARK  166  A    between atoms: _384  and  _387
REMARK  167  A    between atoms: _387  and  _388
REMARK  168  A    between atoms: _391  and  _393
REMARK  169  A    between atoms: _393  and  _394
REMARK  170  A    between atoms: _393  and  _396
REMARK  171  A    between atoms: _396  and  _397
REMARK  172  A    between atoms: _399  and  _401
REMARK  173  A    between atoms: _401  and  _402
REMARK  174  A    between atoms: _401  and  _404
REMARK  175  A    between atoms: _404  and  _405
REMARK  176  A    between atoms: _415  and  _417
REMARK  177  A    between atoms: _417  and  _418
REMARK  178  A    between atoms: _417  and  _420
REMARK  179  A    between atoms: _420  and  _421
REMARK  180  A    between atoms: _423  and  _425
REMARK  181  A    between atoms: _425  and  _426
REMARK  182  A    between atoms: _425  and  _428
REMARK  183  A    between atoms: _428  and  _429
REMARK  184  A    between atoms: _429  and  _430
REMARK  185  A    between atoms: _433  and  _435
REMARK  186  A    between atoms: _435  and  _436
REMARK  187  A    between atoms: _435  and  _438
REMARK  188  A    between atoms: _438  and  _439
REMARK  189  A    between atoms: _439  and  _440
REMARK  190  A    between atoms: _440  and  _441
REMARK                            x       y       z     vdW  Elec       q    Type
REMARK                         _______ _______ _______ _____ _____    ______ ____
ROOT
ATOM      1  O   HOH     1       9.787  31.290  78.372  0.00  0.00    +0.000 OA
ENDROOT
TORSDOF 0
REMARK  Name = ../refined-set-2016/3muz/3muz_pocket.pdb
REMARK  190 active torsions:
REMARK  status: ('A' for Active; 'I' for Inactive)
REMARK    1  A    between atoms: _1  and  _3
REMARK    2  A    between atoms: _3  and  _4
REMARK    3  A    between atoms: _3  and  _6
REMARK    4  A    between atoms: _6  and  _7
REMARK    5  A    between atoms: _12  and  _13
REMARK    6  A    between atoms: _15  and  _17
REMARK    7  A    between atoms: _17  and  _18
REMARK    8  A    between atoms: _17  and  _20
REMARK    9  A    between atoms: _20  and  _21
REMARK   10  A    between atoms: _26  and  _28
REMARK   11  A    between atoms: _28  and  _29
REMARK   12  A    between atoms: _28  and  _31
REMARK   13  A    between atoms: _34  and  _36
REMARK   14  A    between atoms: _36  and  _37
REMARK   15  A    between atoms: _36  and  _39
REMARK   16  A    between atoms: _39  and  _40
REMARK   17  A    between atoms: _43  and  _45
REMARK   18  A    between atoms: _45  and  _46
REMARK   19  A    between atoms: _45  and  _48
REMARK   20  A    between atoms: _48  and  _49
REMARK   21  A    between atoms: _52  and  _54
REMARK   22  A    between atoms: _54  and  _55
REMARK   23  A    between atoms: _54  and  _57
REMARK   24  A    between atoms: _57  and  _58
REMARK   25  A    between atoms: _58  and  _59
REMARK   26  A    between atoms: _64  and  _66
REMARK   27  A    between atoms: _66  and  _67
REMARK   28  A    between atoms: _66  and  _69
REMARK   29  A    between atoms: _69  and  _70
REMARK   30  A    between atoms: _73  and  _75
REMARK   31  A    between atoms: _75  and  _76
REMARK   32  A    between atoms: _75  and  _78
REMARK   33  A    between atoms: _78  and  _79
REMARK   34  A    between atoms: _79  and  _80
REMARK   35  A    between atoms: _82  and  _84
REMARK   36  A    between atoms: _84  and  _85
REMARK   37  A    between atoms: _84  and  _87
REMARK   38  A    between atoms: _87  and  _88
REMARK   39  A    between atoms: _93  and  _95
REMARK   40  A    between atoms: _95  and  _96
REMARK   41  A    between atoms: _95  and  _98
REMARK   42  A    between atoms: _98  and  _99
REMARK   43  A    between atoms: _104  and  _106
REMARK   44  A    between atoms: _106  and  _107
REMARK   45  A    between atoms: _106  and  _109
REMARK   46  A    between atoms: _109  and  _110
REMARK   47  A    between atoms: _110  and  _111
REMARK   48  A    between atoms: _111  and  _112
REMARK   49  A    between atoms: _121  and  _123
REMARK   50  A    between atoms: _123  and  _124
REMARK   51  A    between atoms: _123  and  _126
REMARK   52  A    between atoms: _126  and  _127
REMARK   53  A    between atoms: _132  and  _134
REMARK   54  A    between atoms: _134  and  _135
REMARK   55  A    between atoms: _134  and  _137
REMARK   56  A    between atoms: _137  and  _138
REMARK   57  A    between atoms: _138  and  _139
REMARK   58  A    between atoms: _139  and  _141
REMARK   59  A    between atoms: _141  and  MG_450
REMARK   60  A    between atoms: _142  and  _144
REMARK   61  A    between atoms: _144  and  _145
REMARK   62  A    between atoms: _144  and  _147
REMARK   63  A    between atoms: _147  and  _148
REMARK   64  A    between atoms: _153  and  _155
REMARK   65  A    between atoms: _155  and  _156
REMARK   66  A    between atoms: _155  and  _158
REMARK   67  A    between atoms: _158  and  _159
REMARK   68  A    between atoms: _159  and  _160
REMARK   69  A    between atoms: _162  and  _164
REMARK   70  A    between atoms: _164  and  _165
REMARK   71  A    between atoms: _164  and  _167
REMARK   72  A    between atoms: _167  and  _168
REMARK   73  A    between atoms: _173  and  _175
REMARK   74  A    between atoms: _175  and  _176
REMARK   75  A    between atoms: _175  and  _178
REMARK   76  A    between atoms: _178  and  _179
REMARK   77  A    between atoms: _179  and  _180
REMARK   78  A    between atoms: _180  and  _181
REMARK   79  A    between atoms: _181  and  MG_450
REMARK   80  A    between atoms: _183  and  _185
REMARK   81  A    between atoms: _185  and  _186
REMARK   82  A    between atoms: _185  and  _188
REMARK   83  A    between atoms: _188  and  _189
REMARK   84  A    between atoms: _189  and  _190
REMARK   85  A    between atoms: _193  and  _195
REMARK   86  A    between atoms: _195  and  _196
REMARK   87  A    between atoms: _195  and  _198
REMARK   88  A    between atoms: _198  and  _199
REMARK   89  A    between atoms: _199  and  _200
REMARK   90  A    between atoms: _202  and  _204
REMARK   91  A    between atoms: _204  and  _205
REMARK   92  A    between atoms: _204  and  _207
REMARK   93  A    between atoms: _207  and  _208
REMARK   94  A    between atoms: _213  and  _214
REMARK   95  A    between atoms: _216  and  _218
REMARK   96  A    between atoms: _218  and  _219
REMARK   97  A    between atoms: _218  and  _221
REMARK   98  A    between atoms: _221  and  _222
REMARK   99  A    between atoms: _222  and  _223
REMARK  100  A    between atoms: _223  and  _224
REMARK  101  A    between atoms: _224  and  _225
REMARK  102  A    between atoms: _229  and  _231
REMARK  103  A    between atoms: _231  and  _232
REMARK  104  A    between atoms: _231  and  _234
REMARK  105  A    between atoms: _236  and  _238
REMARK  106  A    between atoms: _238  and  _239
REMARK  107  A    between atoms: _238  and  _241
REMARK  108  A    between atoms: _241  and  _242
REMARK  109  A    between atoms: _242  and  _243
REMARK  110  A    between atoms: _246  and  _248
REMARK  111  A    between atoms: _248  and  _249
REMARK  112  A    between atoms: _248  and  _251
REMARK  113  A    between atoms: _251  and  _252
REMARK  114  A    between atoms: _257  and  _259
REMARK  115  A    between atoms: _259  and  _260
REMARK  116  A    between atoms: _263  and  _265
REMARK  117  A    between atoms: _265  and  _266
REMARK  118  A    between atoms: _265  and  _268
REMARK  119  A    between atoms: _268  and  _269
REMARK  120  A    between atoms: _269  and  _270
REMARK  121  A    between atoms: _272  and  _274
REMARK  122  A    between atoms: _274  and  _275
REMARK  123  A    between atoms: _274  and  _277
REMARK  124  A    between atoms: _277  and  _278
REMARK  125  A    between atoms: _288  and  _290
REMARK  126  A    between atoms: _290  and  _291
REMARK  127  A    between atoms: _290  and  _293
REMARK  128  A    between atoms: _293  and  _294
REMARK  129  A    between atoms: _297  and  _299
REMARK  130  A    between atoms: _299  and  _300
REMARK  131  A    between atoms: _299  and  _302
REMARK  132  A    between atoms: _302  and  _303
REMARK  133  A    between atoms: _303  and  _304
REMARK  134  A    between atoms: _309  and  _311
REMARK  135  A    between atoms: _311  and  _312
REMARK  136  A    between atoms: _311  and  _314
REMARK  137  A    between atoms: _314  and  _315
REMARK  138  A    between atoms: _318  and  _320
REMARK  139  A    between atoms: _320  and  _321
REMARK  140  A    between atoms: _320  and  _323
REMARK  141  A    between atoms: _323  and  _324
REMARK  142  A    between atoms: _324  and  _325
REMARK  143  A    between atoms: _330  and  _332
REMARK  144  A    between atoms: _332  and  _333
REMARK  145  A    between atoms: _332  and  _335
REMARK  146  A    between atoms: _335  and  _336
REMARK  147  A    between atoms: _342  and  _344
REMARK  148  A    between atoms: _344  and  _345
REMARK  149  A    between atoms: _344  and  _347
REMARK  150  A    between atoms: _349  and  _351
REMARK  151  A    between atoms: _351  and  _352
REMARK  152  A    between atoms: _351  and  _354
REMARK  153  A    between atoms: _354  and  _355
REMARK  154  A    between atoms: _355  and  _356
REMARK  155  A    between atoms: _358  and  _360
REMARK  156  A    between atoms: _360  and  _361
REMARK  157  A    between atoms: _360  and  _363
REMARK  158  A    between atoms: _363  and  _364
REMARK  159  A    between atoms: _369  and  _371
REMARK  160  A    between atoms: _371  and  _372
REMARK  161  A    between atoms: _374  and  _376
REMARK  162  A    between atoms: _376  and  _377
REMARK  163  A    between atoms: _376  and  _379
REMARK  164  A    between atoms: _382  and  _384
REMARK  165  A    between atoms: _384  and  _385
REMARK  166  A    between atoms: _384  and  _387
REMARK  167  A    between atoms: _387  and  _388
REMARK  168  A    between atoms: _391  and  _393
REMARK  169  A    between atoms: _393  and  _394
REMARK  170  A    between atoms: _393  and  _396
REMARK  171  A    between atoms: _396  and  _397
REMARK  172  A    between atoms: _399  and  _401
REMARK  173  A    between atoms: _401  and  _402
REMARK  174  A    between atoms: _401  and  _404
REMARK  175  A    between atoms: _404  and  _405
REMARK  176  A    between atoms: _415  and  _417
REMARK  177  A    between atoms: _417  and  _418
REMARK  178  A    between atoms: _417  and  _420
REMARK  179  A    between atoms: _420  and  _421
REMARK  180  A    between atoms: _423  and  _425
REMARK  181  A    between atoms: _425  and  _426
REMARK  182  A    between atoms: _425  and  _428
REMARK  183  A    between atoms: _428  and  _429
REMARK  184  A    between atoms: _429  and  _430
REMARK  185  A    between atoms: _433  and  _435
REMARK  186  A    between atoms: _435  and  _436
REMARK  187  A    between atoms: _435  and  _438
REMARK  188  A    between atoms: _438  and  _439
REMARK  189  A    between atoms: _439  and  _440
REMARK  190  A    between atoms: _440  and  _441
REMARK                            x       y       z     vdW  Elec       q    Type
REMARK                         _______ _______ _______ _____ _____    ______ ____
ROOT
ATOM      1  O   HOH     1       7.680  31.993  75.588  0.00  0.00    +0.000 OA
ENDROOT
TORSDOF 0
REMARK  Name = ../refined-set-2016/3muz/3muz_pocket.pdb
REMARK  190 active torsions:
REMARK  status: ('A' for Active; 'I' for Inactive)
REMARK    1  A    between atoms: _1  and  _3
REMARK    2  A    between atoms: _3  and  _4
REMARK    3  A    between atoms: _3  and  _6
REMARK    4  A    between atoms: _6  and  _7
REMARK    5  A    between atoms: _12  and  _13
REMARK    6  A    between atoms: _15  and  _17
REMARK    7  A    between atoms: _17  and  _18
REMARK    8  A    between atoms: _17  and  _20
REMARK    9  A    between atoms: _20  and  _21
REMARK   10  A    between atoms: _26  and  _28
REMARK   11  A    between atoms: _28  and  _29
REMARK   12  A    between atoms: _28  and  _31
REMARK   13  A    between atoms: _34  and  _36
REMARK   14  A    between atoms: _36  and  _37
REMARK   15  A    between atoms: _36  and  _39
REMARK   16  A    between atoms: _39  and  _40
REMARK   17  A    between atoms: _43  and  _45
REMARK   18  A    between atoms: _45  and  _46
REMARK   19  A    between atoms: _45  and  _48
REMARK   20  A    between atoms: _48  and  _49
REMARK   21  A    between atoms: _52  and  _54
REMARK   22  A    between atoms: _54  and  _55
REMARK   23  A    between atoms: _54  and  _57
REMARK   24  A    between atoms: _57  and  _58
REMARK   25  A    between atoms: _58  and  _59
REMARK   26  A    between atoms: _64  and  _66
REMARK   27  A    between atoms: _66  and  _67
REMARK   28  A    between atoms: _66  and  _69
REMARK   29  A    between atoms: _69  and  _70
REMARK   30  A    between atoms: _73  and  _75
REMARK   31  A    between atoms: _75  and  _76
REMARK   32  A    between atoms: _75  and  _78
REMARK   33  A    between atoms: _78  and  _79
REMARK   34  A    between atoms: _79  and  _80
REMARK   35  A    between atoms: _82  and  _84
REMARK   36  A    between atoms: _84  and  _85
REMARK   37  A    between atoms: _84  and  _87
REMARK   38  A    between atoms: _87  and  _88
REMARK   39  A    between atoms: _93  and  _95
REMARK   40  A    between atoms: _95  and  _96
REMARK   41  A    between atoms: _95  and  _98
REMARK   42  A    between atoms: _98  and  _99
REMARK   43  A    between atoms: _104  and  _106
REMARK   44  A    between atoms: _106  and  _107
REMARK   45  A    between atoms: _106  and  _109
REMARK   46  A    between atoms: _109  and  _110
REMARK   47  A    between atoms: _110  and  _111
REMARK   48  A    between atoms: _111  and  _112
REMARK   49  A    between atoms: _121  and  _123
REMARK   50  A    between atoms: _123  and  _124
REMARK   51  A    between atoms: _123  and  _126
REMARK   52  A    between atoms: _126  and  _127
REMARK   53  A    between atoms: _132  and  _134
REMARK   54  A    between atoms: _134  and  _135
REMARK   55  A    between atoms: _134  and  _137
REMARK   56  A    between atoms: _137  and  _138
REMARK   57  A    between atoms: _138  and  _139
REMARK   58  A    between atoms: _139  and  _141
REMARK   59  A    between atoms: _141  and  MG_450
REMARK   60  A    between atoms: _142  and  _144
REMARK   61  A    between atoms: _144  and  _145
REMARK   62  A    between atoms: _144  and  _147
REMARK   63  A    between atoms: _147  and  _148
REMARK   64  A    between atoms: _153  and  _155
REMARK   65  A    between atoms: _155  and  _156
REMARK   66  A    between atoms: _155  and  _158
REMARK   67  A    between atoms: _158  and  _159
REMARK   68  A    between atoms: _159  and  _160
REMARK   69  A    between atoms: _162  and  _164
REMARK   70  A    between atoms: _164  and  _165
REMARK   71  A    between atoms: _164  and  _167
REMARK   72  A    between atoms: _167  and  _168
REMARK   73  A    between atoms: _173  and  _175
REMARK   74  A    between atoms: _175  and  _176
REMARK   75  A    between atoms: _175  and  _178
REMARK   76  A    between atoms: _178  and  _179
REMARK   77  A    between atoms: _179  and  _180
REMARK   78  A    between atoms: _180  and  _181
REMARK   79  A    between atoms: _181  and  MG_450
REMARK   80  A    between atoms: _183  and  _185
REMARK   81  A    between atoms: _185  and  _186
REMARK   82  A    between atoms: _185  and  _188
REMARK   83  A    between atoms: _188  and  _189
REMARK   84  A    between atoms: _189  and  _190
REMARK   85  A    between atoms: _193  and  _195
REMARK   86  A    between atoms: _195  and  _196
REMARK   87  A    between atoms: _195  and  _198
REMARK   88  A    between atoms: _198  and  _199
REMARK   89  A    between atoms: _199  and  _200
REMARK   90  A    between atoms: _202  and  _204
REMARK   91  A    between atoms: _204  and  _205
REMARK   92  A    between atoms: _204  and  _207
REMARK   93  A    between atoms: _207  and  _208
REMARK   94  A    between atoms: _213  and  _214
REMARK   95  A    between atoms: _216  and  _218
REMARK   96  A    between atoms: _218  and  _219
REMARK   97  A    between atoms: _218  and  _221
REMARK   98  A    between atoms: _221  and  _222
REMARK   99  A    between atoms: _222  and  _223
REMARK  100  A    between atoms: _223  and  _224
REMARK  101  A    between atoms: _224  and  _225
REMARK  102  A    between atoms: _229  and  _231
REMARK  103  A    between atoms: _231  and  _232
REMARK  104  A    between atoms: _231  and  _234
REMARK  105  A    between atoms: _236  and  _238
REMARK  106  A    between atoms: _238  and  _239
REMARK  107  A    between atoms: _238  and  _241
REMARK  108  A    between atoms: _241  and  _242
REMARK  109  A    between atoms: _242  and  _243
REMARK  110  A    between atoms: _246  and  _248
REMARK  111  A    between atoms: _248  and  _249
REMARK  112  A    between atoms: _248  and  _251
REMARK  113  A    between atoms: _251  and  _252
REMARK  114  A    between atoms: _257  and  _259
REMARK  115  A    between atoms: _259  and  _260
REMARK  116  A    between atoms: _263  and  _265
REMARK  117  A    between atoms: _265  and  _266
REMARK  118  A    between atoms: _265  and  _268
REMARK  119  A    between atoms: _268  and  _269
REMARK  120  A    between atoms: _269  and  _270
REMARK  121  A    between atoms: _272  and  _274
REMARK  122  A    between atoms: _274  and  _275
REMARK  123  A    between atoms: _274  and  _277
REMARK  124  A    between atoms: _277  and  _278
REMARK  125  A    between atoms: _288  and  _290
REMARK  126  A    between atoms: _290  and  _291
REMARK  127  A    between atoms: _290  and  _293
REMARK  128  A    between atoms: _293  and  _294
REMARK  129  A    between atoms: _297  and  _299
REMARK  130  A    between atoms: _299  and  _300
REMARK  131  A    between atoms: _299  and  _302
REMARK  132  A    between atoms: _302  and  _303
REMARK  133  A    between atoms: _303  and  _304
REMARK  134  A    between atoms: _309  and  _311
REMARK  135  A    between atoms: _311  and  _312
REMARK  136  A    between atoms: _311  and  _314
REMARK  137  A    between atoms: _314  and  _315
REMARK  138  A    between atoms: _318  and  _320
REMARK  139  A    between atoms: _320  and  _321
REMARK  140  A    between atoms: _320  and  _323
REMARK  141  A    between atoms: _323  and  _324
REMARK  142  A    between atoms: _324  and  _325
REMARK  143  A    between atoms: _330  and  _332
REMARK  144  A    between atoms: _332  and  _333
REMARK  145  A    between atoms: _332  and  _335
REMARK  146  A    between atoms: _335  and  _336
REMARK  147  A    between atoms: _342  and  _344
REMARK  148  A    between atoms: _344  and  _345
REMARK  149  A    between atoms: _344  and  _347
REMARK  150  A    between atoms: _349  and  _351
REMARK  151  A    between atoms: _351  and  _352
REMARK  152  A    between atoms: _351  and  _354
REMARK  153  A    between atoms: _354  and  _355
REMARK  154  A    between atoms: _355  and  _356
REMARK  155  A    between atoms: _358  and  _360
REMARK  156  A    between atoms: _360  and  _361
REMARK  157  A    between atoms: _360  and  _363
REMARK  158  A    between atoms: _363  and  _364
REMARK  159  A    between atoms: _369  and  _371
REMARK  160  A    between atoms: _371  and  _372
REMARK  161  A    between atoms: _374  and  _376
REMARK  162  A    between atoms: _376  and  _377
REMARK  163  A    between atoms: _376  and  _379
REMARK  164  A    between atoms: _382  and  _384
REMARK  165  A    between atoms: _384  and  _385
REMARK  166  A    between atoms: _384  and  _387
REMARK  167  A    between atoms: _387  and  _388
REMARK  168  A    between atoms: _391  and  _393
REMARK  169  A    between atoms: _393  and  _394
REMARK  170  A    between atoms: _393  and  _396
REMARK  171  A    between atoms: _396  and  _397
REMARK  172  A    between atoms: _399  and  _401
REMARK  173  A    between atoms: _401  and  _402
REMARK  174  A    between atoms: _401  and  _404
REMARK  175  A    between atoms: _404  and  _405
REMARK  176  A    between atoms: _415  and  _417
REMARK  177  A    between atoms: _417  and  _418
REMARK  178  A    between atoms: _417  and  _420
REMARK  179  A    between atoms: _420  and  _421
REMARK  180  A    between atoms: _423  and  _425
REMARK  181  A    between atoms: _425  and  _426
REMARK  182  A    between atoms: _425  and  _428
REMARK  183  A    between atoms: _428  and  _429
REMARK  184  A    between atoms: _429  and  _430
REMARK  185  A    between atoms: _433  and  _435
REMARK  186  A    between atoms: _435  and  _436
REMARK  187  A    between atoms: _435  and  _438
REMARK  188  A    between atoms: _438  and  _439
REMARK  189  A    between atoms: _439  and  _440
REMARK  190  A    between atoms: _440  and  _441
REMARK                            x       y       z     vdW  Elec       q    Type
REMARK                         _______ _______ _______ _____ _____    ______ ____
ROOT
ATOM      1  O   HOH     1       7.213  31.094  67.451  0.00  0.00    +0.000 OA
ENDROOT
TORSDOF 0
REMARK  Name = ../refined-set-2016/3muz/3muz_pocket.pdb
REMARK  190 active torsions:
REMARK  status: ('A' for Active; 'I' for Inactive)
REMARK    1  A    between atoms: _1  and  _3
REMARK    2  A    between atoms: _3  and  _4
REMARK    3  A    between atoms: _3  and  _6
REMARK    4  A    between atoms: _6  and  _7
REMARK    5  A    between atoms: _12  and  _13
REMARK    6  A    between atoms: _15  and  _17
REMARK    7  A    between atoms: _17  and  _18
REMARK    8  A    between atoms: _17  and  _20
REMARK    9  A    between atoms: _20  and  _21
REMARK   10  A    between atoms: _26  and  _28
REMARK   11  A    between atoms: _28  and  _29
REMARK   12  A    between atoms: _28  and  _31
REMARK   13  A    between atoms: _34  and  _36
REMARK   14  A    between atoms: _36  and  _37
REMARK   15  A    between atoms: _36  and  _39
REMARK   16  A    between atoms: _39  and  _40
REMARK   17  A    between atoms: _43  and  _45
REMARK   18  A    between atoms: _45  and  _46
REMARK   19  A    between atoms: _45  and  _48
REMARK   20  A    between atoms: _48  and  _49
REMARK   21  A    between atoms: _52  and  _54
REMARK   22  A    between atoms: _54  and  _55
REMARK   23  A    between atoms: _54  and  _57
REMARK   24  A    between atoms: _57  and  _58
REMARK   25  A    between atoms: _58  and  _59
REMARK   26  A    between atoms: _64  and  _66
REMARK   27  A    between atoms: _66  and  _67
REMARK   28  A    between atoms: _66  and  _69
REMARK   29  A    between atoms: _69  and  _70
REMARK   30  A    between atoms: _73  and  _75
REMARK   31  A    between atoms: _75  and  _76
REMARK   32  A    between atoms: _75  and  _78
REMARK   33  A    between atoms: _78  and  _79
REMARK   34  A    between atoms: _79  and  _80
REMARK   35  A    between atoms: _82  and  _84
REMARK   36  A    between atoms: _84  and  _85
REMARK   37  A    between atoms: _84  and  _87
REMARK   38  A    between atoms: _87  and  _88
REMARK   39  A    between atoms: _93  and  _95
REMARK   40  A    between atoms: _95  and  _96
REMARK   41  A    between atoms: _95  and  _98
REMARK   42  A    between atoms: _98  and  _99
REMARK   43  A    between atoms: _104  and  _106
REMARK   44  A    between atoms: _106  and  _107
REMARK   45  A    between atoms: _106  and  _109
REMARK   46  A    between atoms: _109  and  _110
REMARK   47  A    between atoms: _110  and  _111
REMARK   48  A    between atoms: _111  and  _112
REMARK   49  A    between atoms: _121  and  _123
REMARK   50  A    between atoms: _123  and  _124
REMARK   51  A    between atoms: _123  and  _126
REMARK   52  A    between atoms: _126  and  _127
REMARK   53  A    between atoms: _132  and  _134
REMARK   54  A    between atoms: _134  and  _135
REMARK   55  A    between atoms: _134  and  _137
REMARK   56  A    between atoms: _137  and  _138
REMARK   57  A    between atoms: _138  and  _139
REMARK   58  A    between atoms: _139  and  _141
REMARK   59  A    between atoms: _141  and  MG_450
REMARK   60  A    between atoms: _142  and  _144
REMARK   61  A    between atoms: _144  and  _145
REMARK   62  A    between atoms: _144  and  _147
REMARK   63  A    between atoms: _147  and  _148
REMARK   64  A    between atoms: _153  and  _155
REMARK   65  A    between atoms: _155  and  _156
REMARK   66  A    between atoms: _155  and  _158
REMARK   67  A    between atoms: _158  and  _159
REMARK   68  A    between atoms: _159  and  _160
REMARK   69  A    between atoms: _162  and  _164
REMARK   70  A    between atoms: _164  and  _165
REMARK   71  A    between atoms: _164  and  _167
REMARK   72  A    between atoms: _167  and  _168
REMARK   73  A    between atoms: _173  and  _175
REMARK   74  A    between atoms: _175  and  _176
REMARK   75  A    between atoms: _175  and  _178
REMARK   76  A    between atoms: _178  and  _179
REMARK   77  A    between atoms: _179  and  _180
REMARK   78  A    between atoms: _180  and  _181
REMARK   79  A    between atoms: _181  and  MG_450
REMARK   80  A    between atoms: _183  and  _185
REMARK   81  A    between atoms: _185  and  _186
REMARK   82  A    between atoms: _185  and  _188
REMARK   83  A    between atoms: _188  and  _189
REMARK   84  A    between atoms: _189  and  _190
REMARK   85  A    between atoms: _193  and  _195
REMARK   86  A    between atoms: _195  and  _196
REMARK   87  A    between atoms: _195  and  _198
REMARK   88  A    between atoms: _198  and  _199
REMARK   89  A    between atoms: _199  and  _200
REMARK   90  A    between atoms: _202  and  _204
REMARK   91  A    between atoms: _204  and  _205
REMARK   92  A    between atoms: _204  and  _207
REMARK   93  A    between atoms: _207  and  _208
REMARK   94  A    between atoms: _213  and  _214
REMARK   95  A    between atoms: _216  and  _218
REMARK   96  A    between atoms: _218  and  _219
REMARK   97  A    between atoms: _218  and  _221
REMARK   98  A    between atoms: _221  and  _222
REMARK   99  A    between atoms: _222  and  _223
REMARK  100  A    between atoms: _223  and  _224
REMARK  101  A    between atoms: _224  and  _225
REMARK  102  A    between atoms: _229  and  _231
REMARK  103  A    between atoms: _231  and  _232
REMARK  104  A    between atoms: _231  and  _234
REMARK  105  A    between atoms: _236  and  _238
REMARK  106  A    between atoms: _238  and  _239
REMARK  107  A    between atoms: _238  and  _241
REMARK  108  A    between atoms: _241  and  _242
REMARK  109  A    between atoms: _242  and  _243
REMARK  110  A    between atoms: _246  and  _248
REMARK  111  A    between atoms: _248  and  _249
REMARK  112  A    between atoms: _248  and  _251
REMARK  113  A    between atoms: _251  and  _252
REMARK  114  A    between atoms: _257  and  _259
REMARK  115  A    between atoms: _259  and  _260
REMARK  116  A    between atoms: _263  and  _265
REMARK  117  A    between atoms: _265  and  _266
REMARK  118  A    between atoms: _265  and  _268
REMARK  119  A    between atoms: _268  and  _269
REMARK  120  A    between atoms: _269  and  _270
REMARK  121  A    between atoms: _272  and  _274
REMARK  122  A    between atoms: _274  and  _275
REMARK  123  A    between atoms: _274  and  _277
REMARK  124  A    between atoms: _277  and  _278
REMARK  125  A    between atoms: _288  and  _290
REMARK  126  A    between atoms: _290  and  _291
REMARK  127  A    between atoms: _290  and  _293
REMARK  128  A    between atoms: _293  and  _294
REMARK  129  A    between atoms: _297  and  _299
REMARK  130  A    between atoms: _299  and  _300
REMARK  131  A    between atoms: _299  and  _302
REMARK  132  A    between atoms: _302  and  _303
REMARK  133  A    between atoms: _303  and  _304
REMARK  134  A    between atoms: _309  and  _311
REMARK  135  A    between atoms: _311  and  _312
REMARK  136  A    between atoms: _311  and  _314
REMARK  137  A    between atoms: _314  and  _315
REMARK  138  A    between atoms: _318  and  _320
REMARK  139  A    between atoms: _320  and  _321
REMARK  140  A    between atoms: _320  and  _323
REMARK  141  A    between atoms: _323  and  _324
REMARK  142  A    between atoms: _324  and  _325
REMARK  143  A    between atoms: _330  and  _332
REMARK  144  A    between atoms: _332  and  _333
REMARK  145  A    between atoms: _332  and  _335
REMARK  146  A    between atoms: _335  and  _336
REMARK  147  A    between atoms: _342  and  _344
REMARK  148  A    between atoms: _344  and  _345
REMARK  149  A    between atoms: _344  and  _347
REMARK  150  A    between atoms: _349  and  _351
REMARK  151  A    between atoms: _351  and  _352
REMARK  152  A    between atoms: _351  and  _354
REMARK  153  A    between atoms: _354  and  _355
REMARK  154  A    between atoms: _355  and  _356
REMARK  155  A    between atoms: _358  and  _360
REMARK  156  A    between atoms: _360  and  _361
REMARK  157  A    between atoms: _360  and  _363
REMARK  158  A    between atoms: _363  and  _364
REMARK  159  A    between atoms: _369  and  _371
REMARK  160  A    between atoms: _371  and  _372
REMARK  161  A    between atoms: _374  and  _376
REMARK  162  A    between atoms: _376  and  _377
REMARK  163  A    between atoms: _376  and  _379
REMARK  164  A    between atoms: _382  and  _384
REMARK  165  A    between atoms: _384  and  _385
REMARK  166  A    between atoms: _384  and  _387
REMARK  167  A    between atoms: _387  and  _388
REMARK  168  A    between atoms: _391  and  _393
REMARK  169  A    between atoms: _393  and  _394
REMARK  170  A    between atoms: _393  and  _396
REMARK  171  A    between atoms: _396  and  _397
REMARK  172  A    between atoms: _399  and  _401
REMARK  173  A    between atoms: _401  and  _402
REMARK  174  A    between atoms: _401  and  _404
REMARK  175  A    between atoms: _404  and  _405
REMARK  176  A    between atoms: _415  and  _417
REMARK  177  A    between atoms: _417  and  _418
REMARK  178  A    between atoms: _417  and  _420
REMARK  179  A    between atoms: _420  and  _421
REMARK  180  A    between atoms: _423  and  _425
REMARK  181  A    between atoms: _425  and  _426
REMARK  182  A    between atoms: _425  and  _428
REMARK  183  A    between atoms: _428  and  _429
REMARK  184  A    between atoms: _429  and  _430
REMARK  185  A    between atoms: _433  and  _435
REMARK  186  A    between atoms: _435  and  _436
REMARK  187  A    between atoms: _435  and  _438
REMARK  188  A    between atoms: _438  and  _439
REMARK  189  A    between atoms: _439  and  _440
REMARK  190  A    between atoms: _440  and  _441
REMARK                            x       y       z     vdW  Elec       q    Type
REMARK                         _______ _______ _______ _____ _____    ______ ____
ROOT
ATOM      1  O   HOH     1      12.232  25.249  83.910  0.00  0.00    +0.000 OA
ENDROOT
TORSDOF 0
REMARK  Name = ../refined-set-2016/3muz/3muz_pocket.pdb
REMARK  190 active torsions:
REMARK  status: ('A' for Active; 'I' for Inactive)
REMARK    1  A    between atoms: _1  and  _3
REMARK    2  A    between atoms: _3  and  _4
REMARK    3  A    between atoms: _3  and  _6
REMARK    4  A    between atoms: _6  and  _7
REMARK    5  A    between atoms: _12  and  _13
REMARK    6  A    between atoms: _15  and  _17
REMARK    7  A    between atoms: _17  and  _18
REMARK    8  A    between atoms: _17  and  _20
REMARK    9  A    between atoms: _20  and  _21
REMARK   10  A    between atoms: _26  and  _28
REMARK   11  A    between atoms: _28  and  _29
REMARK   12  A    between atoms: _28  and  _31
REMARK   13  A    between atoms: _34  and  _36
REMARK   14  A    between atoms: _36  and  _37
REMARK   15  A    between atoms: _36  and  _39
REMARK   16  A    between atoms: _39  and  _40
REMARK   17  A    between atoms: _43  and  _45
REMARK   18  A    between atoms: _45  and  _46
REMARK   19  A    between atoms: _45  and  _48
REMARK   20  A    between atoms: _48  and  _49
REMARK   21  A    between atoms: _52  and  _54
REMARK   22  A    between atoms: _54  and  _55
REMARK   23  A    between atoms: _54  and  _57
REMARK   24  A    between atoms: _57  and  _58
REMARK   25  A    between atoms: _58  and  _59
REMARK   26  A    between atoms: _64  and  _66
REMARK   27  A    between atoms: _66  and  _67
REMARK   28  A    between atoms: _66  and  _69
REMARK   29  A    between atoms: _69  and  _70
REMARK   30  A    between atoms: _73  and  _75
REMARK   31  A    between atoms: _75  and  _76
REMARK   32  A    between atoms: _75  and  _78
REMARK   33  A    between atoms: _78  and  _79
REMARK   34  A    between atoms: _79  and  _80
REMARK   35  A    between atoms: _82  and  _84
REMARK   36  A    between atoms: _84  and  _85
REMARK   37  A    between atoms: _84  and  _87
REMARK   38  A    between atoms: _87  and  _88
REMARK   39  A    between atoms: _93  and  _95
REMARK   40  A    between atoms: _95  and  _96
REMARK   41  A    between atoms: _95  and  _98
REMARK   42  A    between atoms: _98  and  _99
REMARK   43  A    between atoms: _104  and  _106
REMARK   44  A    between atoms: _106  and  _107
REMARK   45  A    between atoms: _106  and  _109
REMARK   46  A    between atoms: _109  and  _110
REMARK   47  A    between atoms: _110  and  _111
REMARK   48  A    between atoms: _111  and  _112
REMARK   49  A    between atoms: _121  and  _123
REMARK   50  A    between atoms: _123  and  _124
REMARK   51  A    between atoms: _123  and  _126
REMARK   52  A    between atoms: _126  and  _127
REMARK   53  A    between atoms: _132  and  _134
REMARK   54  A    between atoms: _134  and  _135
REMARK   55  A    between atoms: _134  and  _137
REMARK   56  A    between atoms: _137  and  _138
REMARK   57  A    between atoms: _138  and  _139
REMARK   58  A    between atoms: _139  and  _141
REMARK   59  A    between atoms: _141  and  MG_450
REMARK   60  A    between atoms: _142  and  _144
REMARK   61  A    between atoms: _144  and  _145
REMARK   62  A    between atoms: _144  and  _147
REMARK   63  A    between atoms: _147  and  _148
REMARK   64  A    between atoms: _153  and  _155
REMARK   65  A    between atoms: _155  and  _156
REMARK   66  A    between atoms: _155  and  _158
REMARK   67  A    between atoms: _158  and  _159
REMARK   68  A    between atoms: _159  and  _160
REMARK   69  A    between atoms: _162  and  _164
REMARK   70  A    between atoms: _164  and  _165
REMARK   71  A    between atoms: _164  and  _167
REMARK   72  A    between atoms: _167  and  _168
REMARK   73  A    between atoms: _173  and  _175
REMARK   74  A    between atoms: _175  and  _176
REMARK   75  A    between atoms: _175  and  _178
REMARK   76  A    between atoms: _178  and  _179
REMARK   77  A    between atoms: _179  and  _180
REMARK   78  A    between atoms: _180  and  _181
REMARK   79  A    between atoms: _181  and  MG_450
REMARK   80  A    between atoms: _183  and  _185
REMARK   81  A    between atoms: _185  and  _186
REMARK   82  A    between atoms: _185  and  _188
REMARK   83  A    between atoms: _188  and  _189
REMARK   84  A    between atoms: _189  and  _190
REMARK   85  A    between atoms: _193  and  _195
REMARK   86  A    between atoms: _195  and  _196
REMARK   87  A    between atoms: _195  and  _198
REMARK   88  A    between atoms: _198  and  _199
REMARK   89  A    between atoms: _199  and  _200
REMARK   90  A    between atoms: _202  and  _204
REMARK   91  A    between atoms: _204  and  _205
REMARK   92  A    between atoms: _204  and  _207
REMARK   93  A    between atoms: _207  and  _208
REMARK   94  A    between atoms: _213  and  _214
REMARK   95  A    between atoms: _216  and  _218
REMARK   96  A    between atoms: _218  and  _219
REMARK   97  A    between atoms: _218  and  _221
REMARK   98  A    between atoms: _221  and  _222
REMARK   99  A    between atoms: _222  and  _223
REMARK  100  A    between atoms: _223  and  _224
REMARK  101  A    between atoms: _224  and  _225
REMARK  102  A    between atoms: _229  and  _231
REMARK  103  A    between atoms: _231  and  _232
REMARK  104  A    between atoms: _231  and  _234
REMARK  105  A    between atoms: _236  and  _238
REMARK  106  A    between atoms: _238  and  _239
REMARK  107  A    between atoms: _238  and  _241
REMARK  108  A    between atoms: _241  and  _242
REMARK  109  A    between atoms: _242  and  _243
REMARK  110  A    between atoms: _246  and  _248
REMARK  111  A    between atoms: _248  and  _249
REMARK  112  A    between atoms: _248  and  _251
REMARK  113  A    between atoms: _251  and  _252
REMARK  114  A    between atoms: _257  and  _259
REMARK  115  A    between atoms: _259  and  _260
REMARK  116  A    between atoms: _263  and  _265
REMARK  117  A    between atoms: _265  and  _266
REMARK  118  A    between atoms: _265  and  _268
REMARK  119  A    between atoms: _268  and  _269
REMARK  120  A    between atoms: _269  and  _270
REMARK  121  A    between atoms: _272  and  _274
REMARK  122  A    between atoms: _274  and  _275
REMARK  123  A    between atoms: _274  and  _277
REMARK  124  A    between atoms: _277  and  _278
REMARK  125  A    between atoms: _288  and  _290
REMARK  126  A    between atoms: _290  and  _291
REMARK  127  A    between atoms: _290  and  _293
REMARK  128  A    between atoms: _293  and  _294
REMARK  129  A    between atoms: _297  and  _299
REMARK  130  A    between atoms: _299  and  _300
REMARK  131  A    between atoms: _299  and  _302
REMARK  132  A    between atoms: _302  and  _303
REMARK  133  A    between atoms: _303  and  _304
REMARK  134  A    between atoms: _309  and  _311
REMARK  135  A    between atoms: _311  and  _312
REMARK  136  A    between atoms: _311  and  _314
REMARK  137  A    between atoms: _314  and  _315
REMARK  138  A    between atoms: _318  and  _320
REMARK  139  A    between atoms: _320  and  _321
REMARK  140  A    between atoms: _320  and  _323
REMARK  141  A    between atoms: _323  and  _324
REMARK  142  A    between atoms: _324  and  _325
REMARK  143  A    between atoms: _330  and  _332
REMARK  144  A    between atoms: _332  and  _333
REMARK  145  A    between atoms: _332  and  _335
REMARK  146  A    between atoms: _335  and  _336
REMARK  147  A    between atoms: _342  and  _344
REMARK  148  A    between atoms: _344  and  _345
REMARK  149  A    between atoms: _344  and  _347
REMARK  150  A    between atoms: _349  and  _351
REMARK  151  A    between atoms: _351  and  _352
REMARK  152  A    between atoms: _351  and  _354
REMARK  153  A    between atoms: _354  and  _355
REMARK  154  A    between atoms: _355  and  _356
REMARK  155  A    between atoms: _358  and  _360
REMARK  156  A    between atoms: _360  and  _361
REMARK  157  A    between atoms: _360  and  _363
REMARK  158  A    between atoms: _363  and  _364
REMARK  159  A    between atoms: _369  and  _371
REMARK  160  A    between atoms: _371  and  _372
REMARK  161  A    between atoms: _374  and  _376
REMARK  162  A    between atoms: _376  and  _377
REMARK  163  A    between atoms: _376  and  _379
REMARK  164  A    between atoms: _382  and  _384
REMARK  165  A    between atoms: _384  and  _385
REMARK  166  A    between atoms: _384  and  _387
REMARK  167  A    between atoms: _387  and  _388
REMARK  168  A    between atoms: _391  and  _393
REMARK  169  A    between atoms: _393  and  _394
REMARK  170  A    between atoms: _393  and  _396
REMARK  171  A    between atoms: _396  and  _397
REMARK  172  A    between atoms: _399  and  _401
REMARK  173  A    between atoms: _401  and  _402
REMARK  174  A    between atoms: _401  and  _404
REMARK  175  A    between atoms: _404  and  _405
REMARK  176  A    between atoms: _415  and  _417
REMARK  177  A    between atoms: _417  and  _418
REMARK  178  A    between atoms: _417  and  _420
REMARK  179  A    between atoms: _420  and  _421
REMARK  180  A    between atoms: _423  and  _425
REMARK  181  A    between atoms: _425  and  _426
REMARK  182  A    between atoms: _425  and  _428
REMARK  183  A    between atoms: _428  and  _429
REMARK  184  A    between atoms: _429  and  _430
REMARK  185  A    between atoms: _433  and  _435
REMARK  186  A    between atoms: _435  and  _436
REMARK  187  A    between atoms: _435  and  _438
REMARK  188  A    between atoms: _438  and  _439
REMARK  189  A    between atoms: _439  and  _440
REMARK  190  A    between atoms: _440  and  _441
REMARK                            x       y       z     vdW  Elec       q    Type
REMARK                         _______ _______ _______ _____ _____    ______ ____
ROOT
ATOM      1  O   HOH     1       8.478  25.221  83.015  0.00  0.00    +0.000 OA
ENDROOT
TORSDOF 0
REMARK  Name = ../refined-set-2016/3muz/3muz_pocket.pdb
REMARK  190 active torsions:
REMARK  status: ('A' for Active; 'I' for Inactive)
REMARK    1  A    between atoms: _1  and  _3
REMARK    2  A    between atoms: _3  and  _4
REMARK    3  A    between atoms: _3  and  _6
REMARK    4  A    between atoms: _6  and  _7
REMARK    5  A    between atoms: _12  and  _13
REMARK    6  A    between atoms: _15  and  _17
REMARK    7  A    between atoms: _17  and  _18
REMARK    8  A    between atoms: _17  and  _20
REMARK    9  A    between atoms: _20  and  _21
REMARK   10  A    between atoms: _26  and  _28
REMARK   11  A    between atoms: _28  and  _29
REMARK   12  A    between atoms: _28  and  _31
REMARK   13  A    between atoms: _34  and  _36
REMARK   14  A    between atoms: _36  and  _37
REMARK   15  A    between atoms: _36  and  _39
REMARK   16  A    between atoms: _39  and  _40
REMARK   17  A    between atoms: _43  and  _45
REMARK   18  A    between atoms: _45  and  _46
REMARK   19  A    between atoms: _45  and  _48
REMARK   20  A    between atoms: _48  and  _49
REMARK   21  A    between atoms: _52  and  _54
REMARK   22  A    between atoms: _54  and  _55
REMARK   23  A    between atoms: _54  and  _57
REMARK   24  A    between atoms: _57  and  _58
REMARK   25  A    between atoms: _58  and  _59
REMARK   26  A    between atoms: _64  and  _66
REMARK   27  A    between atoms: _66  and  _67
REMARK   28  A    between atoms: _66  and  _69
REMARK   29  A    between atoms: _69  and  _70
REMARK   30  A    between atoms: _73  and  _75
REMARK   31  A    between atoms: _75  and  _76
REMARK   32  A    between atoms: _75  and  _78
REMARK   33  A    between atoms: _78  and  _79
REMARK   34  A    between atoms: _79  and  _80
REMARK   35  A    between atoms: _82  and  _84
REMARK   36  A    between atoms: _84  and  _85
REMARK   37  A    between atoms: _84  and  _87
REMARK   38  A    between atoms: _87  and  _88
REMARK   39  A    between atoms: _93  and  _95
REMARK   40  A    between atoms: _95  and  _96
REMARK   41  A    between atoms: _95  and  _98
REMARK   42  A    between atoms: _98  and  _99
REMARK   43  A    between atoms: _104  and  _106
REMARK   44  A    between atoms: _106  and  _107
REMARK   45  A    between atoms: _106  and  _109
REMARK   46  A    between atoms: _109  and  _110
REMARK   47  A    between atoms: _110  and  _111
REMARK   48  A    between atoms: _111  and  _112
REMARK   49  A    between atoms: _121  and  _123
REMARK   50  A    between atoms: _123  and  _124
REMARK   51  A    between atoms: _123  and  _126
REMARK   52  A    between atoms: _126  and  _127
REMARK   53  A    between atoms: _132  and  _134
REMARK   54  A    between atoms: _134  and  _135
REMARK   55  A    between atoms: _134  and  _137
REMARK   56  A    between atoms: _137  and  _138
REMARK   57  A    between atoms: _138  and  _139
REMARK   58  A    between atoms: _139  and  _141
REMARK   59  A    between atoms: _141  and  MG_450
REMARK   60  A    between atoms: _142  and  _144
REMARK   61  A    between atoms: _144  and  _145
REMARK   62  A    between atoms: _144  and  _147
REMARK   63  A    between atoms: _147  and  _148
REMARK   64  A    between atoms: _153  and  _155
REMARK   65  A    between atoms: _155  and  _156
REMARK   66  A    between atoms: _155  and  _158
REMARK   67  A    between atoms: _158  and  _159
REMARK   68  A    between atoms: _159  and  _160
REMARK   69  A    between atoms: _162  and  _164
REMARK   70  A    between atoms: _164  and  _165
REMARK   71  A    between atoms: _164  and  _167
REMARK   72  A    between atoms: _167  and  _168
REMARK   73  A    between atoms: _173  and  _175
REMARK   74  A    between atoms: _175  and  _176
REMARK   75  A    between atoms: _175  and  _178
REMARK   76  A    between atoms: _178  and  _179
REMARK   77  A    between atoms: _179  and  _180
REMARK   78  A    between atoms: _180  and  _181
REMARK   79  A    between atoms: _181  and  MG_450
REMARK   80  A    between atoms: _183  and  _185
REMARK   81  A    between atoms: _185  and  _186
REMARK   82  A    between atoms: _185  and  _188
REMARK   83  A    between atoms: _188  and  _189
REMARK   84  A    between atoms: _189  and  _190
REMARK   85  A    between atoms: _193  and  _195
REMARK   86  A    between atoms: _195  and  _196
REMARK   87  A    between atoms: _195  and  _198
REMARK   88  A    between atoms: _198  and  _199
REMARK   89  A    between atoms: _199  and  _200
REMARK   90  A    between atoms: _202  and  _204
REMARK   91  A    between atoms: _204  and  _205
REMARK   92  A    between atoms: _204  and  _207
REMARK   93  A    between atoms: _207  and  _208
REMARK   94  A    between atoms: _213  and  _214
REMARK   95  A    between atoms: _216  and  _218
REMARK   96  A    between atoms: _218  and  _219
REMARK   97  A    between atoms: _218  and  _221
REMARK   98  A    between atoms: _221  and  _222
REMARK   99  A    between atoms: _222  and  _223
REMARK  100  A    between atoms: _223  and  _224
REMARK  101  A    between atoms: _224  and  _225
REMARK  102  A    between atoms: _229  and  _231
REMARK  103  A    between atoms: _231  and  _232
REMARK  104  A    between atoms: _231  and  _234
REMARK  105  A    between atoms: _236  and  _238
REMARK  106  A    between atoms: _238  and  _239
REMARK  107  A    between atoms: _238  and  _241
REMARK  108  A    between atoms: _241  and  _242
REMARK  109  A    between atoms: _242  and  _243
REMARK  110  A    between atoms: _246  and  _248
REMARK  111  A    between atoms: _248  and  _249
REMARK  112  A    between atoms: _248  and  _251
REMARK  113  A    between atoms: _251  and  _252
REMARK  114  A    between atoms: _257  and  _259
REMARK  115  A    between atoms: _259  and  _260
REMARK  116  A    between atoms: _263  and  _265
REMARK  117  A    between atoms: _265  and  _266
REMARK  118  A    between atoms: _265  and  _268
REMARK  119  A    between atoms: _268  and  _269
REMARK  120  A    between atoms: _269  and  _270
REMARK  121  A    between atoms: _272  and  _274
REMARK  122  A    between atoms: _274  and  _275
REMARK  123  A    between atoms: _274  and  _277
REMARK  124  A    between atoms: _277  and  _278
REMARK  125  A    between atoms: _288  and  _290
REMARK  126  A    between atoms: _290  and  _291
REMARK  127  A    between atoms: _290  and  _293
REMARK  128  A    between atoms: _293  and  _294
REMARK  129  A    between atoms: _297  and  _299
REMARK  130  A    between atoms: _299  and  _300
REMARK  131  A    between atoms: _299  and  _302
REMARK  132  A    between atoms: _302  and  _303
REMARK  133  A    between atoms: _303  and  _304
REMARK  134  A    between atoms: _309  and  _311
REMARK  135  A    between atoms: _311  and  _312
REMARK  136  A    between atoms: _311  and  _314
REMARK  137  A    between atoms: _314  and  _315
REMARK  138  A    between atoms: _318  and  _320
REMARK  139  A    between atoms: _320  and  _321
REMARK  140  A    between atoms: _320  and  _323
REMARK  141  A    between atoms: _323  and  _324
REMARK  142  A    between atoms: _324  and  _325
REMARK  143  A    between atoms: _330  and  _332
REMARK  144  A    between atoms: _332  and  _333
REMARK  145  A    between atoms: _332  and  _335
REMARK  146  A    between atoms: _335  and  _336
REMARK  147  A    between atoms: _342  and  _344
REMARK  148  A    between atoms: _344  and  _345
REMARK  149  A    between atoms: _344  and  _347
REMARK  150  A    between atoms: _349  and  _351
REMARK  151  A    between atoms: _351  and  _352
REMARK  152  A    between atoms: _351  and  _354
REMARK  153  A    between atoms: _354  and  _355
REMARK  154  A    between atoms: _355  and  _356
REMARK  155  A    between atoms: _358  and  _360
REMARK  156  A    between atoms: _360  and  _361
REMARK  157  A    between atoms: _360  and  _363
REMARK  158  A    between atoms: _363  and  _364
REMARK  159  A    between atoms: _369  and  _371
REMARK  160  A    between atoms: _371  and  _372
REMARK  161  A    between atoms: _374  and  _376
REMARK  162  A    between atoms: _376  and  _377
REMARK  163  A    between atoms: _376  and  _379
REMARK  164  A    between atoms: _382  and  _384
REMARK  165  A    between atoms: _384  and  _385
REMARK  166  A    between atoms: _384  and  _387
REMARK  167  A    between atoms: _387  and  _388
REMARK  168  A    between atoms: _391  and  _393
REMARK  169  A    between atoms: _393  and  _394
REMARK  170  A    between atoms: _393  and  _396
REMARK  171  A    between atoms: _396  and  _397
REMARK  172  A    between atoms: _399  and  _401
REMARK  173  A    between atoms: _401  and  _402
REMARK  174  A    between atoms: _401  and  _404
REMARK  175  A    between atoms: _404  and  _405
REMARK  176  A    between atoms: _415  and  _417
REMARK  177  A    between atoms: _417  and  _418
REMARK  178  A    between atoms: _417  and  _420
REMARK  179  A    between atoms: _420  and  _421
REMARK  180  A    between atoms: _423  and  _425
REMARK  181  A    between atoms: _425  and  _426
REMARK  182  A    between atoms: _425  and  _428
REMARK  183  A    between atoms: _428  and  _429
REMARK  184  A    between atoms: _429  and  _430
REMARK  185  A    between atoms: _433  and  _435
REMARK  186  A    between atoms: _435  and  _436
REMARK  187  A    between atoms: _435  and  _438
REMARK  188  A    between atoms: _438  and  _439
REMARK  189  A    between atoms: _439  and  _440
REMARK  190  A    between atoms: _440  and  _441
REMARK                            x       y       z     vdW  Elec       q    Type
REMARK                         _______ _______ _______ _____ _____    ______ ____
ROOT
ATOM      1  O   HOH     1       7.338  31.650  70.351  0.00  0.00    +0.000 OA
ENDROOT
TORSDOF 0
REMARK  Name = ../refined-set-2016/3muz/3muz_pocket.pdb
REMARK  190 active torsions:
REMARK  status: ('A' for Active; 'I' for Inactive)
REMARK    1  A    between atoms: _1  and  _3
REMARK    2  A    between atoms: _3  and  _4
REMARK    3  A    between atoms: _3  and  _6
REMARK    4  A    between atoms: _6  and  _7
REMARK    5  A    between atoms: _12  and  _13
REMARK    6  A    between atoms: _15  and  _17
REMARK    7  A    between atoms: _17  and  _18
REMARK    8  A    between atoms: _17  and  _20
REMARK    9  A    between atoms: _20  and  _21
REMARK   10  A    between atoms: _26  and  _28
REMARK   11  A    between atoms: _28  and  _29
REMARK   12  A    between atoms: _28  and  _31
REMARK   13  A    between atoms: _34  and  _36
REMARK   14  A    between atoms: _36  and  _37
REMARK   15  A    between atoms: _36  and  _39
REMARK   16  A    between atoms: _39  and  _40
REMARK   17  A    between atoms: _43  and  _45
REMARK   18  A    between atoms: _45  and  _46
REMARK   19  A    between atoms: _45  and  _48
REMARK   20  A    between atoms: _48  and  _49
REMARK   21  A    between atoms: _52  and  _54
REMARK   22  A    between atoms: _54  and  _55
REMARK   23  A    between atoms: _54  and  _57
REMARK   24  A    between atoms: _57  and  _58
REMARK   25  A    between atoms: _58  and  _59
REMARK   26  A    between atoms: _64  and  _66
REMARK   27  A    between atoms: _66  and  _67
REMARK   28  A    between atoms: _66  and  _69
REMARK   29  A    between atoms: _69  and  _70
REMARK   30  A    between atoms: _73  and  _75
REMARK   31  A    between atoms: _75  and  _76
REMARK   32  A    between atoms: _75  and  _78
REMARK   33  A    between atoms: _78  and  _79
REMARK   34  A    between atoms: _79  and  _80
REMARK   35  A    between atoms: _82  and  _84
REMARK   36  A    between atoms: _84  and  _85
REMARK   37  A    between atoms: _84  and  _87
REMARK   38  A    between atoms: _87  and  _88
REMARK   39  A    between atoms: _93  and  _95
REMARK   40  A    between atoms: _95  and  _96
REMARK   41  A    between atoms: _95  and  _98
REMARK   42  A    between atoms: _98  and  _99
REMARK   43  A    between atoms: _104  and  _106
REMARK   44  A    between atoms: _106  and  _107
REMARK   45  A    between atoms: _106  and  _109
REMARK   46  A    between atoms: _109  and  _110
REMARK   47  A    between atoms: _110  and  _111
REMARK   48  A    between atoms: _111  and  _112
REMARK   49  A    between atoms: _121  and  _123
REMARK   50  A    between atoms: _123  and  _124
REMARK   51  A    between atoms: _123  and  _126
REMARK   52  A    between atoms: _126  and  _127
REMARK   53  A    between atoms: _132  and  _134
REMARK   54  A    between atoms: _134  and  _135
REMARK   55  A    between atoms: _134  and  _137
REMARK   56  A    between atoms: _137  and  _138
REMARK   57  A    between atoms: _138  and  _139
REMARK   58  A    between atoms: _139  and  _141
REMARK   59  A    between atoms: _141  and  MG_450
REMARK   60  A    between atoms: _142  and  _144
REMARK   61  A    between atoms: _144  and  _145
REMARK   62  A    between atoms: _144  and  _147
REMARK   63  A    between atoms: _147  and  _148
REMARK   64  A    between atoms: _153  and  _155
REMARK   65  A    between atoms: _155  and  _156
REMARK   66  A    between atoms: _155  and  _158
REMARK   67  A    between atoms: _158  and  _159
REMARK   68  A    between atoms: _159  and  _160
REMARK   69  A    between atoms: _162  and  _164
REMARK   70  A    between atoms: _164  and  _165
REMARK   71  A    between atoms: _164  and  _167
REMARK   72  A    between atoms: _167  and  _168
REMARK   73  A    between atoms: _173  and  _175
REMARK   74  A    between atoms: _175  and  _176
REMARK   75  A    between atoms: _175  and  _178
REMARK   76  A    between atoms: _178  and  _179
REMARK   77  A    between atoms: _179  and  _180
REMARK   78  A    between atoms: _180  and  _181
REMARK   79  A    between atoms: _181  and  MG_450
REMARK   80  A    between atoms: _183  and  _185
REMARK   81  A    between atoms: _185  and  _186
REMARK   82  A    between atoms: _185  and  _188
REMARK   83  A    between atoms: _188  and  _189
REMARK   84  A    between atoms: _189  and  _190
REMARK   85  A    between atoms: _193  and  _195
REMARK   86  A    between atoms: _195  and  _196
REMARK   87  A    between atoms: _195  and  _198
REMARK   88  A    between atoms: _198  and  _199
REMARK   89  A    between atoms: _199  and  _200
REMARK   90  A    between atoms: _202  and  _204
REMARK   91  A    between atoms: _204  and  _205
REMARK   92  A    between atoms: _204  and  _207
REMARK   93  A    between atoms: _207  and  _208
REMARK   94  A    between atoms: _213  and  _214
REMARK   95  A    between atoms: _216  and  _218
REMARK   96  A    between atoms: _218  and  _219
REMARK   97  A    between atoms: _218  and  _221
REMARK   98  A    between atoms: _221  and  _222
REMARK   99  A    between atoms: _222  and  _223
REMARK  100  A    between atoms: _223  and  _224
REMARK  101  A    between atoms: _224  and  _225
REMARK  102  A    between atoms: _229  and  _231
REMARK  103  A    between atoms: _231  and  _232
REMARK  104  A    between atoms: _231  and  _234
REMARK  105  A    between atoms: _236  and  _238
REMARK  106  A    between atoms: _238  and  _239
REMARK  107  A    between atoms: _238  and  _241
REMARK  108  A    between atoms: _241  and  _242
REMARK  109  A    between atoms: _242  and  _243
REMARK  110  A    between atoms: _246  and  _248
REMARK  111  A    between atoms: _248  and  _249
REMARK  112  A    between atoms: _248  and  _251
REMARK  113  A    between atoms: _251  and  _252
REMARK  114  A    between atoms: _257  and  _259
REMARK  115  A    between atoms: _259  and  _260
REMARK  116  A    between atoms: _263  and  _265
REMARK  117  A    between atoms: _265  and  _266
REMARK  118  A    between atoms: _265  and  _268
REMARK  119  A    between atoms: _268  and  _269
REMARK  120  A    between atoms: _269  and  _270
REMARK  121  A    between atoms: _272  and  _274
REMARK  122  A    between atoms: _274  and  _275
REMARK  123  A    between atoms: _274  and  _277
REMARK  124  A    between atoms: _277  and  _278
REMARK  125  A    between atoms: _288  and  _290
REMARK  126  A    between atoms: _290  and  _291
REMARK  127  A    between atoms: _290  and  _293
REMARK  128  A    between atoms: _293  and  _294
REMARK  129  A    between atoms: _297  and  _299
REMARK  130  A    between atoms: _299  and  _300
REMARK  131  A    between atoms: _299  and  _302
REMARK  132  A    between atoms: _302  and  _303
REMARK  133  A    between atoms: _303  and  _304
REMARK  134  A    between atoms: _309  and  _311
REMARK  135  A    between atoms: _311  and  _312
REMARK  136  A    between atoms: _311  and  _314
REMARK  137  A    between atoms: _314  and  _315
REMARK  138  A    between atoms: _318  and  _320
REMARK  139  A    between atoms: _320  and  _321
REMARK  140  A    between atoms: _320  and  _323
REMARK  141  A    between atoms: _323  and  _324
REMARK  142  A    between atoms: _324  and  _325
REMARK  143  A    between atoms: _330  and  _332
REMARK  144  A    between atoms: _332  and  _333
REMARK  145  A    between atoms: _332  and  _335
REMARK  146  A    between atoms: _335  and  _336
REMARK  147  A    between atoms: _342  and  _344
REMARK  148  A    between atoms: _344  and  _345
REMARK  149  A    between atoms: _344  and  _347
REMARK  150  A    between atoms: _349  and  _351
REMARK  151  A    between atoms: _351  and  _352
REMARK  152  A    between atoms: _351  and  _354
REMARK  153  A    between atoms: _354  and  _355
REMARK  154  A    between atoms: _355  and  _356
REMARK  155  A    between atoms: _358  and  _360
REMARK  156  A    between atoms: _360  and  _361
REMARK  157  A    between atoms: _360  and  _363
REMARK  158  A    between atoms: _363  and  _364
REMARK  159  A    between atoms: _369  and  _371
REMARK  160  A    between atoms: _371  and  _372
REMARK  161  A    between atoms: _374  and  _376
REMARK  162  A    between atoms: _376  and  _377
REMARK  163  A    between atoms: _376  and  _379
REMARK  164  A    between atoms: _382  and  _384
REMARK  165  A    between atoms: _384  and  _385
REMARK  166  A    between atoms: _384  and  _387
REMARK  167  A    between atoms: _387  and  _388
REMARK  168  A    between atoms: _391  and  _393
REMARK  169  A    between atoms: _393  and  _394
REMARK  170  A    between atoms: _393  and  _396
REMARK  171  A    between atoms: _396  and  _397
REMARK  172  A    between atoms: _399  and  _401
REMARK  173  A    between atoms: _401  and  _402
REMARK  174  A    between atoms: _401  and  _404
REMARK  175  A    between atoms: _404  and  _405
REMARK  176  A    between atoms: _415  and  _417
REMARK  177  A    between atoms: _417  and  _418
REMARK  178  A    between atoms: _417  and  _420
REMARK  179  A    between atoms: _420  and  _421
REMARK  180  A    between atoms: _423  and  _425
REMARK  181  A    between atoms: _425  and  _426
REMARK  182  A    between atoms: _425  and  _428
REMARK  183  A    between atoms: _428  and  _429
REMARK  184  A    between atoms: _429  and  _430
REMARK  185  A    between atoms: _433  and  _435
REMARK  186  A    between atoms: _435  and  _436
REMARK  187  A    between atoms: _435  and  _438
REMARK  188  A    between atoms: _438  and  _439
REMARK  189  A    between atoms: _439  and  _440
REMARK  190  A    between atoms: _440  and  _441
REMARK                            x       y       z     vdW  Elec       q    Type
REMARK                         _______ _______ _______ _____ _____    ______ ____
ROOT
ATOM      1  O   HOH     1      12.758  30.641  77.529  0.00  0.00    +0.000 OA
ENDROOT
TORSDOF 0
REMARK  Name = ../refined-set-2016/3muz/3muz_pocket.pdb
REMARK  190 active torsions:
REMARK  status: ('A' for Active; 'I' for Inactive)
REMARK    1  A    between atoms: _1  and  _3
REMARK    2  A    between atoms: _3  and  _4
REMARK    3  A    between atoms: _3  and  _6
REMARK    4  A    between atoms: _6  and  _7
REMARK    5  A    between atoms: _12  and  _13
REMARK    6  A    between atoms: _15  and  _17
REMARK    7  A    between atoms: _17  and  _18
REMARK    8  A    between atoms: _17  and  _20
REMARK    9  A    between atoms: _20  and  _21
REMARK   10  A    between atoms: _26  and  _28
REMARK   11  A    between atoms: _28  and  _29
REMARK   12  A    between atoms: _28  and  _31
REMARK   13  A    between atoms: _34  and  _36
REMARK   14  A    between atoms: _36  and  _37
REMARK   15  A    between atoms: _36  and  _39
REMARK   16  A    between atoms: _39  and  _40
REMARK   17  A    between atoms: _43  and  _45
REMARK   18  A    between atoms: _45  and  _46
REMARK   19  A    between atoms: _45  and  _48
REMARK   20  A    between atoms: _48  and  _49
REMARK   21  A    between atoms: _52  and  _54
REMARK   22  A    between atoms: _54  and  _55
REMARK   23  A    between atoms: _54  and  _57
REMARK   24  A    between atoms: _57  and  _58
REMARK   25  A    between atoms: _58  and  _59
REMARK   26  A    between atoms: _64  and  _66
REMARK   27  A    between atoms: _66  and  _67
REMARK   28  A    between atoms: _66  and  _69
REMARK   29  A    between atoms: _69  and  _70
REMARK   30  A    between atoms: _73  and  _75
REMARK   31  A    between atoms: _75  and  _76
REMARK   32  A    between atoms: _75  and  _78
REMARK   33  A    between atoms: _78  and  _79
REMARK   34  A    between atoms: _79  and  _80
REMARK   35  A    between atoms: _82  and  _84
REMARK   36  A    between atoms: _84  and  _85
REMARK   37  A    between atoms: _84  and  _87
REMARK   38  A    between atoms: _87  and  _88
REMARK   39  A    between atoms: _93  and  _95
REMARK   40  A    between atoms: _95  and  _96
REMARK   41  A    between atoms: _95  and  _98
REMARK   42  A    between atoms: _98  and  _99
REMARK   43  A    between atoms: _104  and  _106
REMARK   44  A    between atoms: _106  and  _107
REMARK   45  A    between atoms: _106  and  _109
REMARK   46  A    between atoms: _109  and  _110
REMARK   47  A    between atoms: _110  and  _111
REMARK   48  A    between atoms: _111  and  _112
REMARK   49  A    between atoms: _121  and  _123
REMARK   50  A    between atoms: _123  and  _124
REMARK   51  A    between atoms: _123  and  _126
REMARK   52  A    between atoms: _126  and  _127
REMARK   53  A    between atoms: _132  and  _134
REMARK   54  A    between atoms: _134  and  _135
REMARK   55  A    between atoms: _134  and  _137
REMARK   56  A    between atoms: _137  and  _138
REMARK   57  A    between atoms: _138  and  _139
REMARK   58  A    between atoms: _139  and  _141
REMARK   59  A    between atoms: _141  and  MG_450
REMARK   60  A    between atoms: _142  and  _144
REMARK   61  A    between atoms: _144  and  _145
REMARK   62  A    between atoms: _144  and  _147
REMARK   63  A    between atoms: _147  and  _148
REMARK   64  A    between atoms: _153  and  _155
REMARK   65  A    between atoms: _155  and  _156
REMARK   66  A    between atoms: _155  and  _158
REMARK   67  A    between atoms: _158  and  _159
REMARK   68  A    between atoms: _159  and  _160
REMARK   69  A    between atoms: _162  and  _164
REMARK   70  A    between atoms: _164  and  _165
REMARK   71  A    between atoms: _164  and  _167
REMARK   72  A    between atoms: _167  and  _168
REMARK   73  A    between atoms: _173  and  _175
REMARK   74  A    between atoms: _175  and  _176
REMARK   75  A    between atoms: _175  and  _178
REMARK   76  A    between atoms: _178  and  _179
REMARK   77  A    between atoms: _179  and  _180
REMARK   78  A    between atoms: _180  and  _181
REMARK   79  A    between atoms: _181  and  MG_450
REMARK   80  A    between atoms: _183  and  _185
REMARK   81  A    between atoms: _185  and  _186
REMARK   82  A    between atoms: _185  and  _188
REMARK   83  A    between atoms: _188  and  _189
REMARK   84  A    between atoms: _189  and  _190
REMARK   85  A    between atoms: _193  and  _195
REMARK   86  A    between atoms: _195  and  _196
REMARK   87  A    between atoms: _195  and  _198
REMARK   88  A    between atoms: _198  and  _199
REMARK   89  A    between atoms: _199  and  _200
REMARK   90  A    between atoms: _202  and  _204
REMARK   91  A    between atoms: _204  and  _205
REMARK   92  A    between atoms: _204  and  _207
REMARK   93  A    between atoms: _207  and  _208
REMARK   94  A    between atoms: _213  and  _214
REMARK   95  A    between atoms: _216  and  _218
REMARK   96  A    between atoms: _218  and  _219
REMARK   97  A    between atoms: _218  and  _221
REMARK   98  A    between atoms: _221  and  _222
REMARK   99  A    between atoms: _222  and  _223
REMARK  100  A    between atoms: _223  and  _224
REMARK  101  A    between atoms: _224  and  _225
REMARK  102  A    between atoms: _229  and  _231
REMARK  103  A    between atoms: _231  and  _232
REMARK  104  A    between atoms: _231  and  _234
REMARK  105  A    between atoms: _236  and  _238
REMARK  106  A    between atoms: _238  and  _239
REMARK  107  A    between atoms: _238  and  _241
REMARK  108  A    between atoms: _241  and  _242
REMARK  109  A    between atoms: _242  and  _243
REMARK  110  A    between atoms: _246  and  _248
REMARK  111  A    between atoms: _248  and  _249
REMARK  112  A    between atoms: _248  and  _251
REMARK  113  A    between atoms: _251  and  _252
REMARK  114  A    between atoms: _257  and  _259
REMARK  115  A    between atoms: _259  and  _260
REMARK  116  A    between atoms: _263  and  _265
REMARK  117  A    between atoms: _265  and  _266
REMARK  118  A    between atoms: _265  and  _268
REMARK  119  A    between atoms: _268  and  _269
REMARK  120  A    between atoms: _269  and  _270
REMARK  121  A    between atoms: _272  and  _274
REMARK  122  A    between atoms: _274  and  _275
REMARK  123  A    between atoms: _274  and  _277
REMARK  124  A    between atoms: _277  and  _278
REMARK  125  A    between atoms: _288  and  _290
REMARK  126  A    between atoms: _290  and  _291
REMARK  127  A    between atoms: _290  and  _293
REMARK  128  A    between atoms: _293  and  _294
REMARK  129  A    between atoms: _297  and  _299
REMARK  130  A    between atoms: _299  and  _300
REMARK  131  A    between atoms: _299  and  _302
REMARK  132  A    between atoms: _302  and  _303
REMARK  133  A    between atoms: _303  and  _304
REMARK  134  A    between atoms: _309  and  _311
REMARK  135  A    between atoms: _311  and  _312
REMARK  136  A    between atoms: _311  and  _314
REMARK  137  A    between atoms: _314  and  _315
REMARK  138  A    between atoms: _318  and  _320
REMARK  139  A    between atoms: _320  and  _321
REMARK  140  A    between atoms: _320  and  _323
REMARK  141  A    between atoms: _323  and  _324
REMARK  142  A    between atoms: _324  and  _325
REMARK  143  A    between atoms: _330  and  _332
REMARK  144  A    between atoms: _332  and  _333
REMARK  145  A    between atoms: _332  and  _335
REMARK  146  A    between atoms: _335  and  _336
REMARK  147  A    between atoms: _342  and  _344
REMARK  148  A    between atoms: _344  and  _345
REMARK  149  A    between atoms: _344  and  _347
REMARK  150  A    between atoms: _349  and  _351
REMARK  151  A    between atoms: _351  and  _352
REMARK  152  A    between atoms: _351  and  _354
REMARK  153  A    between atoms: _354  and  _355
REMARK  154  A    between atoms: _355  and  _356
REMARK  155  A    between atoms: _358  and  _360
REMARK  156  A    between atoms: _360  and  _361
REMARK  157  A    between atoms: _360  and  _363
REMARK  158  A    between atoms: _363  and  _364
REMARK  159  A    between atoms: _369  and  _371
REMARK  160  A    between atoms: _371  and  _372
REMARK  161  A    between atoms: _374  and  _376
REMARK  162  A    between atoms: _376  and  _377
REMARK  163  A    between atoms: _376  and  _379
REMARK  164  A    between atoms: _382  and  _384
REMARK  165  A    between atoms: _384  and  _385
REMARK  166  A    between atoms: _384  and  _387
REMARK  167  A    between atoms: _387  and  _388
REMARK  168  A    between atoms: _391  and  _393
REMARK  169  A    between atoms: _393  and  _394
REMARK  170  A    between atoms: _393  and  _396
REMARK  171  A    between atoms: _396  and  _397
REMARK  172  A    between atoms: _399  and  _401
REMARK  173  A    between atoms: _401  and  _402
REMARK  174  A    between atoms: _401  and  _404
REMARK  175  A    between atoms: _404  and  _405
REMARK  176  A    between atoms: _415  and  _417
REMARK  177  A    between atoms: _417  and  _418
REMARK  178  A    between atoms: _417  and  _420
REMARK  179  A    between atoms: _420  and  _421
REMARK  180  A    between atoms: _423  and  _425
REMARK  181  A    between atoms: _425  and  _426
REMARK  182  A    between atoms: _425  and  _428
REMARK  183  A    between atoms: _428  and  _429
REMARK  184  A    between atoms: _429  and  _430
REMARK  185  A    between atoms: _433  and  _435
REMARK  186  A    between atoms: _435  and  _436
REMARK  187  A    between atoms: _435  and  _438
REMARK  188  A    between atoms: _438  and  _439
REMARK  189  A    between atoms: _439  and  _440
REMARK  190  A    between atoms: _440  and  _441
REMARK                            x       y       z     vdW  Elec       q    Type
REMARK                         _______ _______ _______ _____ _____    ______ ____
ROOT
ATOM      1  O   HOH     1      15.052  23.142  78.675  0.00  0.00    +0.000 OA
ENDROOT
TORSDOF 0
REMARK  Name = ../refined-set-2016/3muz/3muz_pocket.pdb
REMARK  190 active torsions:
REMARK  status: ('A' for Active; 'I' for Inactive)
REMARK    1  A    between atoms: _1  and  _3
REMARK    2  A    between atoms: _3  and  _4
REMARK    3  A    between atoms: _3  and  _6
REMARK    4  A    between atoms: _6  and  _7
REMARK    5  A    between atoms: _12  and  _13
REMARK    6  A    between atoms: _15  and  _17
REMARK    7  A    between atoms: _17  and  _18
REMARK    8  A    between atoms: _17  and  _20
REMARK    9  A    between atoms: _20  and  _21
REMARK   10  A    between atoms: _26  and  _28
REMARK   11  A    between atoms: _28  and  _29
REMARK   12  A    between atoms: _28  and  _31
REMARK   13  A    between atoms: _34  and  _36
REMARK   14  A    between atoms: _36  and  _37
REMARK   15  A    between atoms: _36  and  _39
REMARK   16  A    between atoms: _39  and  _40
REMARK   17  A    between atoms: _43  and  _45
REMARK   18  A    between atoms: _45  and  _46
REMARK   19  A    between atoms: _45  and  _48
REMARK   20  A    between atoms: _48  and  _49
REMARK   21  A    between atoms: _52  and  _54
REMARK   22  A    between atoms: _54  and  _55
REMARK   23  A    between atoms: _54  and  _57
REMARK   24  A    between atoms: _57  and  _58
REMARK   25  A    between atoms: _58  and  _59
REMARK   26  A    between atoms: _64  and  _66
REMARK   27  A    between atoms: _66  and  _67
REMARK   28  A    between atoms: _66  and  _69
REMARK   29  A    between atoms: _69  and  _70
REMARK   30  A    between atoms: _73  and  _75
REMARK   31  A    between atoms: _75  and  _76
REMARK   32  A    between atoms: _75  and  _78
REMARK   33  A    between atoms: _78  and  _79
REMARK   34  A    between atoms: _79  and  _80
REMARK   35  A    between atoms: _82  and  _84
REMARK   36  A    between atoms: _84  and  _85
REMARK   37  A    between atoms: _84  and  _87
REMARK   38  A    between atoms: _87  and  _88
REMARK   39  A    between atoms: _93  and  _95
REMARK   40  A    between atoms: _95  and  _96
REMARK   41  A    between atoms: _95  and  _98
REMARK   42  A    between atoms: _98  and  _99
REMARK   43  A    between atoms: _104  and  _106
REMARK   44  A    between atoms: _106  and  _107
REMARK   45  A    between atoms: _106  and  _109
REMARK   46  A    between atoms: _109  and  _110
REMARK   47  A    between atoms: _110  and  _111
REMARK   48  A    between atoms: _111  and  _112
REMARK   49  A    between atoms: _121  and  _123
REMARK   50  A    between atoms: _123  and  _124
REMARK   51  A    between atoms: _123  and  _126
REMARK   52  A    between atoms: _126  and  _127
REMARK   53  A    between atoms: _132  and  _134
REMARK   54  A    between atoms: _134  and  _135
REMARK   55  A    between atoms: _134  and  _137
REMARK   56  A    between atoms: _137  and  _138
REMARK   57  A    between atoms: _138  and  _139
REMARK   58  A    between atoms: _139  and  _141
REMARK   59  A    between atoms: _141  and  MG_450
REMARK   60  A    between atoms: _142  and  _144
REMARK   61  A    between atoms: _144  and  _145
REMARK   62  A    between atoms: _144  and  _147
REMARK   63  A    between atoms: _147  and  _148
REMARK   64  A    between atoms: _153  and  _155
REMARK   65  A    between atoms: _155  and  _156
REMARK   66  A    between atoms: _155  and  _158
REMARK   67  A    between atoms: _158  and  _159
REMARK   68  A    between atoms: _159  and  _160
REMARK   69  A    between atoms: _162  and  _164
REMARK   70  A    between atoms: _164  and  _165
REMARK   71  A    between atoms: _164  and  _167
REMARK   72  A    between atoms: _167  and  _168
REMARK   73  A    between atoms: _173  and  _175
REMARK   74  A    between atoms: _175  and  _176
REMARK   75  A    between atoms: _175  and  _178
REMARK   76  A    between atoms: _178  and  _179
REMARK   77  A    between atoms: _179  and  _180
REMARK   78  A    between atoms: _180  and  _181
REMARK   79  A    between atoms: _181  and  MG_450
REMARK   80  A    between atoms: _183  and  _185
REMARK   81  A    between atoms: _185  and  _186
REMARK   82  A    between atoms: _185  and  _188
REMARK   83  A    between atoms: _188  and  _189
REMARK   84  A    between atoms: _189  and  _190
REMARK   85  A    between atoms: _193  and  _195
REMARK   86  A    between atoms: _195  and  _196
REMARK   87  A    between atoms: _195  and  _198
REMARK   88  A    between atoms: _198  and  _199
REMARK   89  A    between atoms: _199  and  _200
REMARK   90  A    between atoms: _202  and  _204
REMARK   91  A    between atoms: _204  and  _205
REMARK   92  A    between atoms: _204  and  _207
REMARK   93  A    between atoms: _207  and  _208
REMARK   94  A    between atoms: _213  and  _214
REMARK   95  A    between atoms: _216  and  _218
REMARK   96  A    between atoms: _218  and  _219
REMARK   97  A    between atoms: _218  and  _221
REMARK   98  A    between atoms: _221  and  _222
REMARK   99  A    between atoms: _222  and  _223
REMARK  100  A    between atoms: _223  and  _224
REMARK  101  A    between atoms: _224  and  _225
REMARK  102  A    between atoms: _229  and  _231
REMARK  103  A    between atoms: _231  and  _232
REMARK  104  A    between atoms: _231  and  _234
REMARK  105  A    between atoms: _236  and  _238
REMARK  106  A    between atoms: _238  and  _239
REMARK  107  A    between atoms: _238  and  _241
REMARK  108  A    between atoms: _241  and  _242
REMARK  109  A    between atoms: _242  and  _243
REMARK  110  A    between atoms: _246  and  _248
REMARK  111  A    between atoms: _248  and  _249
REMARK  112  A    between atoms: _248  and  _251
REMARK  113  A    between atoms: _251  and  _252
REMARK  114  A    between atoms: _257  and  _259
REMARK  115  A    between atoms: _259  and  _260
REMARK  116  A    between atoms: _263  and  _265
REMARK  117  A    between atoms: _265  and  _266
REMARK  118  A    between atoms: _265  and  _268
REMARK  119  A    between atoms: _268  and  _269
REMARK  120  A    between atoms: _269  and  _270
REMARK  121  A    between atoms: _272  and  _274
REMARK  122  A    between atoms: _274  and  _275
REMARK  123  A    between atoms: _274  and  _277
REMARK  124  A    between atoms: _277  and  _278
REMARK  125  A    between atoms: _288  and  _290
REMARK  126  A    between atoms: _290  and  _291
REMARK  127  A    between atoms: _290  and  _293
REMARK  128  A    between atoms: _293  and  _294
REMARK  129  A    between atoms: _297  and  _299
REMARK  130  A    between atoms: _299  and  _300
REMARK  131  A    between atoms: _299  and  _302
REMARK  132  A    between atoms: _302  and  _303
REMARK  133  A    between atoms: _303  and  _304
REMARK  134  A    between atoms: _309  and  _311
REMARK  135  A    between atoms: _311  and  _312
REMARK  136  A    between atoms: _311  and  _314
REMARK  137  A    between atoms: _314  and  _315
REMARK  138  A    between atoms: _318  and  _320
REMARK  139  A    between atoms: _320  and  _321
REMARK  140  A    between atoms: _320  and  _323
REMARK  141  A    between atoms: _323  and  _324
REMARK  142  A    between atoms: _324  and  _325
REMARK  143  A    between atoms: _330  and  _332
REMARK  144  A    between atoms: _332  and  _333
REMARK  145  A    between atoms: _332  and  _335
REMARK  146  A    between atoms: _335  and  _336
REMARK  147  A    between atoms: _342  and  _344
REMARK  148  A    between atoms: _344  and  _345
REMARK  149  A    between atoms: _344  and  _347
REMARK  150  A    between atoms: _349  and  _351
REMARK  151  A    between atoms: _351  and  _352
REMARK  152  A    between atoms: _351  and  _354
REMARK  153  A    between atoms: _354  and  _355
REMARK  154  A    between atoms: _355  and  _356
REMARK  155  A    between atoms: _358  and  _360
REMARK  156  A    between atoms: _360  and  _361
REMARK  157  A    between atoms: _360  and  _363
REMARK  158  A    between atoms: _363  and  _364
REMARK  159  A    between atoms: _369  and  _371
REMARK  160  A    between atoms: _371  and  _372
REMARK  161  A    between atoms: _374  and  _376
REMARK  162  A    between atoms: _376  and  _377
REMARK  163  A    between atoms: _376  and  _379
REMARK  164  A    between atoms: _382  and  _384
REMARK  165  A    between atoms: _384  and  _385
REMARK  166  A    between atoms: _384  and  _387
REMARK  167  A    between atoms: _387  and  _388
REMARK  168  A    between atoms: _391  and  _393
REMARK  169  A    between atoms: _393  and  _394
REMARK  170  A    between atoms: _393  and  _396
REMARK  171  A    between atoms: _396  and  _397
REMARK  172  A    between atoms: _399  and  _401
REMARK  173  A    between atoms: _401  and  _402
REMARK  174  A    between atoms: _401  and  _404
REMARK  175  A    between atoms: _404  and  _405
REMARK  176  A    between atoms: _415  and  _417
REMARK  177  A    between atoms: _417  and  _418
REMARK  178  A    between atoms: _417  and  _420
REMARK  179  A    between atoms: _420  and  _421
REMARK  180  A    between atoms: _423  and  _425
REMARK  181  A    between atoms: _425  and  _426
REMARK  182  A    between atoms: _425  and  _428
REMARK  183  A    between atoms: _428  and  _429
REMARK  184  A    between atoms: _429  and  _430
REMARK  185  A    between atoms: _433  and  _435
REMARK  186  A    between atoms: _435  and  _436
REMARK  187  A    between atoms: _435  and  _438
REMARK  188  A    between atoms: _438  and  _439
REMARK  189  A    between atoms: _439  and  _440
REMARK  190  A    between atoms: _440  and  _441
REMARK                            x       y       z     vdW  Elec       q    Type
REMARK                         _______ _______ _______ _____ _____    ______ ____
ROOT
ATOM      1  O   HOH     1      12.133  33.220  79.166  0.00  0.00    +0.000 OA
ENDROOT
TORSDOF 0
REMARK  Name = ../refined-set-2016/3muz/3muz_pocket.pdb
REMARK  190 active torsions:
REMARK  status: ('A' for Active; 'I' for Inactive)
REMARK    1  A    between atoms: _1  and  _3
REMARK    2  A    between atoms: _3  and  _4
REMARK    3  A    between atoms: _3  and  _6
REMARK    4  A    between atoms: _6  and  _7
REMARK    5  A    between atoms: _12  and  _13
REMARK    6  A    between atoms: _15  and  _17
REMARK    7  A    between atoms: _17  and  _18
REMARK    8  A    between atoms: _17  and  _20
REMARK    9  A    between atoms: _20  and  _21
REMARK   10  A    between atoms: _26  and  _28
REMARK   11  A    between atoms: _28  and  _29
REMARK   12  A    between atoms: _28  and  _31
REMARK   13  A    between atoms: _34  and  _36
REMARK   14  A    between atoms: _36  and  _37
REMARK   15  A    between atoms: _36  and  _39
REMARK   16  A    between atoms: _39  and  _40
REMARK   17  A    between atoms: _43  and  _45
REMARK   18  A    between atoms: _45  and  _46
REMARK   19  A    between atoms: _45  and  _48
REMARK   20  A    between atoms: _48  and  _49
REMARK   21  A    between atoms: _52  and  _54
REMARK   22  A    between atoms: _54  and  _55
REMARK   23  A    between atoms: _54  and  _57
REMARK   24  A    between atoms: _57  and  _58
REMARK   25  A    between atoms: _58  and  _59
REMARK   26  A    between atoms: _64  and  _66
REMARK   27  A    between atoms: _66  and  _67
REMARK   28  A    between atoms: _66  and  _69
REMARK   29  A    between atoms: _69  and  _70
REMARK   30  A    between atoms: _73  and  _75
REMARK   31  A    between atoms: _75  and  _76
REMARK   32  A    between atoms: _75  and  _78
REMARK   33  A    between atoms: _78  and  _79
REMARK   34  A    between atoms: _79  and  _80
REMARK   35  A    between atoms: _82  and  _84
REMARK   36  A    between atoms: _84  and  _85
REMARK   37  A    between atoms: _84  and  _87
REMARK   38  A    between atoms: _87  and  _88
REMARK   39  A    between atoms: _93  and  _95
REMARK   40  A    between atoms: _95  and  _96
REMARK   41  A    between atoms: _95  and  _98
REMARK   42  A    between atoms: _98  and  _99
REMARK   43  A    between atoms: _104  and  _106
REMARK   44  A    between atoms: _106  and  _107
REMARK   45  A    between atoms: _106  and  _109
REMARK   46  A    between atoms: _109  and  _110
REMARK   47  A    between atoms: _110  and  _111
REMARK   48  A    between atoms: _111  and  _112
REMARK   49  A    between atoms: _121  and  _123
REMARK   50  A    between atoms: _123  and  _124
REMARK   51  A    between atoms: _123  and  _126
REMARK   52  A    between atoms: _126  and  _127
REMARK   53  A    between atoms: _132  and  _134
REMARK   54  A    between atoms: _134  and  _135
REMARK   55  A    between atoms: _134  and  _137
REMARK   56  A    between atoms: _137  and  _138
REMARK   57  A    between atoms: _138  and  _139
REMARK   58  A    between atoms: _139  and  _141
REMARK   59  A    between atoms: _141  and  MG_450
REMARK   60  A    between atoms: _142  and  _144
REMARK   61  A    between atoms: _144  and  _145
REMARK   62  A    between atoms: _144  and  _147
REMARK   63  A    between atoms: _147  and  _148
REMARK   64  A    between atoms: _153  and  _155
REMARK   65  A    between atoms: _155  and  _156
REMARK   66  A    between atoms: _155  and  _158
REMARK   67  A    between atoms: _158  and  _159
REMARK   68  A    between atoms: _159  and  _160
REMARK   69  A    between atoms: _162  and  _164
REMARK   70  A    between atoms: _164  and  _165
REMARK   71  A    between atoms: _164  and  _167
REMARK   72  A    between atoms: _167  and  _168
REMARK   73  A    between atoms: _173  and  _175
REMARK   74  A    between atoms: _175  and  _176
REMARK   75  A    between atoms: _175  and  _178
REMARK   76  A    between atoms: _178  and  _179
REMARK   77  A    between atoms: _179  and  _180
REMARK   78  A    between atoms: _180  and  _181
REMARK   79  A    between atoms: _181  and  MG_450
REMARK   80  A    between atoms: _183  and  _185
REMARK   81  A    between atoms: _185  and  _186
REMARK   82  A    between atoms: _185  and  _188
REMARK   83  A    between atoms: _188  and  _189
REMARK   84  A    between atoms: _189  and  _190
REMARK   85  A    between atoms: _193  and  _195
REMARK   86  A    between atoms: _195  and  _196
REMARK   87  A    between atoms: _195  and  _198
REMARK   88  A    between atoms: _198  and  _199
REMARK   89  A    between atoms: _199  and  _200
REMARK   90  A    between atoms: _202  and  _204
REMARK   91  A    between atoms: _204  and  _205
REMARK   92  A    between atoms: _204  and  _207
REMARK   93  A    between atoms: _207  and  _208
REMARK   94  A    between atoms: _213  and  _214
REMARK   95  A    between atoms: _216  and  _218
REMARK   96  A    between atoms: _218  and  _219
REMARK   97  A    between atoms: _218  and  _221
REMARK   98  A    between atoms: _221  and  _222
REMARK   99  A    between atoms: _222  and  _223
REMARK  100  A    between atoms: _223  and  _224
REMARK  101  A    between atoms: _224  and  _225
REMARK  102  A    between atoms: _229  and  _231
REMARK  103  A    between atoms: _231  and  _232
REMARK  104  A    between atoms: _231  and  _234
REMARK  105  A    between atoms: _236  and  _238
REMARK  106  A    between atoms: _238  and  _239
REMARK  107  A    between atoms: _238  and  _241
REMARK  108  A    between atoms: _241  and  _242
REMARK  109  A    between atoms: _242  and  _243
REMARK  110  A    between atoms: _246  and  _248
REMARK  111  A    between atoms: _248  and  _249
REMARK  112  A    between atoms: _248  and  _251
REMARK  113  A    between atoms: _251  and  _252
REMARK  114  A    between atoms: _257  and  _259
REMARK  115  A    between atoms: _259  and  _260
REMARK  116  A    between atoms: _263  and  _265
REMARK  117  A    between atoms: _265  and  _266
REMARK  118  A    between atoms: _265  and  _268
REMARK  119  A    between atoms: _268  and  _269
REMARK  120  A    between atoms: _269  and  _270
REMARK  121  A    between atoms: _272  and  _274
REMARK  122  A    between atoms: _274  and  _275
REMARK  123  A    between atoms: _274  and  _277
REMARK  124  A    between atoms: _277  and  _278
REMARK  125  A    between atoms: _288  and  _290
REMARK  126  A    between atoms: _290  and  _291
REMARK  127  A    between atoms: _290  and  _293
REMARK  128  A    between atoms: _293  and  _294
REMARK  129  A    between atoms: _297  and  _299
REMARK  130  A    between atoms: _299  and  _300
REMARK  131  A    between atoms: _299  and  _302
REMARK  132  A    between atoms: _302  and  _303
REMARK  133  A    between atoms: _303  and  _304
REMARK  134  A    between atoms: _309  and  _311
REMARK  135  A    between atoms: _311  and  _312
REMARK  136  A    between atoms: _311  and  _314
REMARK  137  A    between atoms: _314  and  _315
REMARK  138  A    between atoms: _318  and  _320
REMARK  139  A    between atoms: _320  and  _321
REMARK  140  A    between atoms: _320  and  _323
REMARK  141  A    between atoms: _323  and  _324
REMARK  142  A    between atoms: _324  and  _325
REMARK  143  A    between atoms: _330  and  _332
REMARK  144  A    between atoms: _332  and  _333
REMARK  145  A    between atoms: _332  and  _335
REMARK  146  A    between atoms: _335  and  _336
REMARK  147  A    between atoms: _342  and  _344
REMARK  148  A    between atoms: _344  and  _345
REMARK  149  A    between atoms: _344  and  _347
REMARK  150  A    between atoms: _349  and  _351
REMARK  151  A    between atoms: _351  and  _352
REMARK  152  A    between atoms: _351  and  _354
REMARK  153  A    between atoms: _354  and  _355
REMARK  154  A    between atoms: _355  and  _356
REMARK  155  A    between atoms: _358  and  _360
REMARK  156  A    between atoms: _360  and  _361
REMARK  157  A    between atoms: _360  and  _363
REMARK  158  A    between atoms: _363  and  _364
REMARK  159  A    between atoms: _369  and  _371
REMARK  160  A    between atoms: _371  and  _372
REMARK  161  A    between atoms: _374  and  _376
REMARK  162  A    between atoms: _376  and  _377
REMARK  163  A    between atoms: _376  and  _379
REMARK  164  A    between atoms: _382  and  _384
REMARK  165  A    between atoms: _384  and  _385
REMARK  166  A    between atoms: _384  and  _387
REMARK  167  A    between atoms: _387  and  _388
REMARK  168  A    between atoms: _391  and  _393
REMARK  169  A    between atoms: _393  and  _394
REMARK  170  A    between atoms: _393  and  _396
REMARK  171  A    between atoms: _396  and  _397
REMARK  172  A    between atoms: _399  and  _401
REMARK  173  A    between atoms: _401  and  _402
REMARK  174  A    between atoms: _401  and  _404
REMARK  175  A    between atoms: _404  and  _405
REMARK  176  A    between atoms: _415  and  _417
REMARK  177  A    between atoms: _417  and  _418
REMARK  178  A    between atoms: _417  and  _420
REMARK  179  A    between atoms: _420  and  _421
REMARK  180  A    between atoms: _423  and  _425
REMARK  181  A    between atoms: _425  and  _426
REMARK  182  A    between atoms: _425  and  _428
REMARK  183  A    between atoms: _428  and  _429
REMARK  184  A    between atoms: _429  and  _430
REMARK  185  A    between atoms: _433  and  _435
REMARK  186  A    between atoms: _435  and  _436
REMARK  187  A    between atoms: _435  and  _438
REMARK  188  A    between atoms: _438  and  _439
REMARK  189  A    between atoms: _439  and  _440
REMARK  190  A    between atoms: _440  and  _441
REMARK                            x       y       z     vdW  Elec       q    Type
REMARK                         _______ _______ _______ _____ _____    ______ ____
ROOT
ATOM      1  O   HOH     1      18.419  35.597  76.868  0.00  0.00    +0.000 OA
ENDROOT
TORSDOF 0
REMARK  Name = ../refined-set-2016/3muz/3muz_pocket.pdb
REMARK  190 active torsions:
REMARK  status: ('A' for Active; 'I' for Inactive)
REMARK    1  A    between atoms: _1  and  _3
REMARK    2  A    between atoms: _3  and  _4
REMARK    3  A    between atoms: _3  and  _6
REMARK    4  A    between atoms: _6  and  _7
REMARK    5  A    between atoms: _12  and  _13
REMARK    6  A    between atoms: _15  and  _17
REMARK    7  A    between atoms: _17  and  _18
REMARK    8  A    between atoms: _17  and  _20
REMARK    9  A    between atoms: _20  and  _21
REMARK   10  A    between atoms: _26  and  _28
REMARK   11  A    between atoms: _28  and  _29
REMARK   12  A    between atoms: _28  and  _31
REMARK   13  A    between atoms: _34  and  _36
REMARK   14  A    between atoms: _36  and  _37
REMARK   15  A    between atoms: _36  and  _39
REMARK   16  A    between atoms: _39  and  _40
REMARK   17  A    between atoms: _43  and  _45
REMARK   18  A    between atoms: _45  and  _46
REMARK   19  A    between atoms: _45  and  _48
REMARK   20  A    between atoms: _48  and  _49
REMARK   21  A    between atoms: _52  and  _54
REMARK   22  A    between atoms: _54  and  _55
REMARK   23  A    between atoms: _54  and  _57
REMARK   24  A    between atoms: _57  and  _58
REMARK   25  A    between atoms: _58  and  _59
REMARK   26  A    between atoms: _64  and  _66
REMARK   27  A    between atoms: _66  and  _67
REMARK   28  A    between atoms: _66  and  _69
REMARK   29  A    between atoms: _69  and  _70
REMARK   30  A    between atoms: _73  and  _75
REMARK   31  A    between atoms: _75  and  _76
REMARK   32  A    between atoms: _75  and  _78
REMARK   33  A    between atoms: _78  and  _79
REMARK   34  A    between atoms: _79  and  _80
REMARK   35  A    between atoms: _82  and  _84
REMARK   36  A    between atoms: _84  and  _85
REMARK   37  A    between atoms: _84  and  _87
REMARK   38  A    between atoms: _87  and  _88
REMARK   39  A    between atoms: _93  and  _95
REMARK   40  A    between atoms: _95  and  _96
REMARK   41  A    between atoms: _95  and  _98
REMARK   42  A    between atoms: _98  and  _99
REMARK   43  A    between atoms: _104  and  _106
REMARK   44  A    between atoms: _106  and  _107
REMARK   45  A    between atoms: _106  and  _109
REMARK   46  A    between atoms: _109  and  _110
REMARK   47  A    between atoms: _110  and  _111
REMARK   48  A    between atoms: _111  and  _112
REMARK   49  A    between atoms: _121  and  _123
REMARK   50  A    between atoms: _123  and  _124
REMARK   51  A    between atoms: _123  and  _126
REMARK   52  A    between atoms: _126  and  _127
REMARK   53  A    between atoms: _132  and  _134
REMARK   54  A    between atoms: _134  and  _135
REMARK   55  A    between atoms: _134  and  _137
REMARK   56  A    between atoms: _137  and  _138
REMARK   57  A    between atoms: _138  and  _139
REMARK   58  A    between atoms: _139  and  _141
REMARK   59  A    between atoms: _141  and  MG_450
REMARK   60  A    between atoms: _142  and  _144
REMARK   61  A    between atoms: _144  and  _145
REMARK   62  A    between atoms: _144  and  _147
REMARK   63  A    between atoms: _147  and  _148
REMARK   64  A    between atoms: _153  and  _155
REMARK   65  A    between atoms: _155  and  _156
REMARK   66  A    between atoms: _155  and  _158
REMARK   67  A    between atoms: _158  and  _159
REMARK   68  A    between atoms: _159  and  _160
REMARK   69  A    between atoms: _162  and  _164
REMARK   70  A    between atoms: _164  and  _165
REMARK   71  A    between atoms: _164  and  _167
REMARK   72  A    between atoms: _167  and  _168
REMARK   73  A    between atoms: _173  and  _175
REMARK   74  A    between atoms: _175  and  _176
REMARK   75  A    between atoms: _175  and  _178
REMARK   76  A    between atoms: _178  and  _179
REMARK   77  A    between atoms: _179  and  _180
REMARK   78  A    between atoms: _180  and  _181
REMARK   79  A    between atoms: _181  and  MG_450
REMARK   80  A    between atoms: _183  and  _185
REMARK   81  A    between atoms: _185  and  _186
REMARK   82  A    between atoms: _185  and  _188
REMARK   83  A    between atoms: _188  and  _189
REMARK   84  A    between atoms: _189  and  _190
REMARK   85  A    between atoms: _193  and  _195
REMARK   86  A    between atoms: _195  and  _196
REMARK   87  A    between atoms: _195  and  _198
REMARK   88  A    between atoms: _198  and  _199
REMARK   89  A    between atoms: _199  and  _200
REMARK   90  A    between atoms: _202  and  _204
REMARK   91  A    between atoms: _204  and  _205
REMARK   92  A    between atoms: _204  and  _207
REMARK   93  A    between atoms: _207  and  _208
REMARK   94  A    between atoms: _213  and  _214
REMARK   95  A    between atoms: _216  and  _218
REMARK   96  A    between atoms: _218  and  _219
REMARK   97  A    between atoms: _218  and  _221
REMARK   98  A    between atoms: _221  and  _222
REMARK   99  A    between atoms: _222  and  _223
REMARK  100  A    between atoms: _223  and  _224
REMARK  101  A    between atoms: _224  and  _225
REMARK  102  A    between atoms: _229  and  _231
REMARK  103  A    between atoms: _231  and  _232
REMARK  104  A    between atoms: _231  and  _234
REMARK  105  A    between atoms: _236  and  _238
REMARK  106  A    between atoms: _238  and  _239
REMARK  107  A    between atoms: _238  and  _241
REMARK  108  A    between atoms: _241  and  _242
REMARK  109  A    between atoms: _242  and  _243
REMARK  110  A    between atoms: _246  and  _248
REMARK  111  A    between atoms: _248  and  _249
REMARK  112  A    between atoms: _248  and  _251
REMARK  113  A    between atoms: _251  and  _252
REMARK  114  A    between atoms: _257  and  _259
REMARK  115  A    between atoms: _259  and  _260
REMARK  116  A    between atoms: _263  and  _265
REMARK  117  A    between atoms: _265  and  _266
REMARK  118  A    between atoms: _265  and  _268
REMARK  119  A    between atoms: _268  and  _269
REMARK  120  A    between atoms: _269  and  _270
REMARK  121  A    between atoms: _272  and  _274
REMARK  122  A    between atoms: _274  and  _275
REMARK  123  A    between atoms: _274  and  _277
REMARK  124  A    between atoms: _277  and  _278
REMARK  125  A    between atoms: _288  and  _290
REMARK  126  A    between atoms: _290  and  _291
REMARK  127  A    between atoms: _290  and  _293
REMARK  128  A    between atoms: _293  and  _294
REMARK  129  A    between atoms: _297  and  _299
REMARK  130  A    between atoms: _299  and  _300
REMARK  131  A    between atoms: _299  and  _302
REMARK  132  A    between atoms: _302  and  _303
REMARK  133  A    between atoms: _303  and  _304
REMARK  134  A    between atoms: _309  and  _311
REMARK  135  A    between atoms: _311  and  _312
REMARK  136  A    between atoms: _311  and  _314
REMARK  137  A    between atoms: _314  and  _315
REMARK  138  A    between atoms: _318  and  _320
REMARK  139  A    between atoms: _320  and  _321
REMARK  140  A    between atoms: _320  and  _323
REMARK  141  A    between atoms: _323  and  _324
REMARK  142  A    between atoms: _324  and  _325
REMARK  143  A    between atoms: _330  and  _332
REMARK  144  A    between atoms: _332  and  _333
REMARK  145  A    between atoms: _332  and  _335
REMARK  146  A    between atoms: _335  and  _336
REMARK  147  A    between atoms: _342  and  _344
REMARK  148  A    between atoms: _344  and  _345
REMARK  149  A    between atoms: _344  and  _347
REMARK  150  A    between atoms: _349  and  _351
REMARK  151  A    between atoms: _351  and  _352
REMARK  152  A    between atoms: _351  and  _354
REMARK  153  A    between atoms: _354  and  _355
REMARK  154  A    between atoms: _355  and  _356
REMARK  155  A    between atoms: _358  and  _360
REMARK  156  A    between atoms: _360  and  _361
REMARK  157  A    between atoms: _360  and  _363
REMARK  158  A    between atoms: _363  and  _364
REMARK  159  A    between atoms: _369  and  _371
REMARK  160  A    between atoms: _371  and  _372
REMARK  161  A    between atoms: _374  and  _376
REMARK  162  A    between atoms: _376  and  _377
REMARK  163  A    between atoms: _376  and  _379
REMARK  164  A    between atoms: _382  and  _384
REMARK  165  A    between atoms: _384  and  _385
REMARK  166  A    between atoms: _384  and  _387
REMARK  167  A    between atoms: _387  and  _388
REMARK  168  A    between atoms: _391  and  _393
REMARK  169  A    between atoms: _393  and  _394
REMARK  170  A    between atoms: _393  and  _396
REMARK  171  A    between atoms: _396  and  _397
REMARK  172  A    between atoms: _399  and  _401
REMARK  173  A    between atoms: _401  and  _402
REMARK  174  A    between atoms: _401  and  _404
REMARK  175  A    between atoms: _404  and  _405
REMARK  176  A    between atoms: _415  and  _417
REMARK  177  A    between atoms: _417  and  _418
REMARK  178  A    between atoms: _417  and  _420
REMARK  179  A    between atoms: _420  and  _421
REMARK  180  A    between atoms: _423  and  _425
REMARK  181  A    between atoms: _425  and  _426
REMARK  182  A    between atoms: _425  and  _428
REMARK  183  A    between atoms: _428  and  _429
REMARK  184  A    between atoms: _429  and  _430
REMARK  185  A    between atoms: _433  and  _435
REMARK  186  A    between atoms: _435  and  _436
REMARK  187  A    between atoms: _435  and  _438
REMARK  188  A    between atoms: _438  and  _439
REMARK  189  A    between atoms: _439  and  _440
REMARK  190  A    between atoms: _440  and  _441
REMARK                            x       y       z     vdW  Elec       q    Type
REMARK                         _______ _______ _______ _____ _____    ______ ____
ROOT
ATOM      1  O   HOH     1       9.674  32.280  71.983  0.00  0.00    +0.000 OA
ENDROOT
TORSDOF 0
REMARK  Name = ../refined-set-2016/3muz/3muz_pocket.pdb
REMARK  190 active torsions:
REMARK  status: ('A' for Active; 'I' for Inactive)
REMARK    1  A    between atoms: _1  and  _3
REMARK    2  A    between atoms: _3  and  _4
REMARK    3  A    between atoms: _3  and  _6
REMARK    4  A    between atoms: _6  and  _7
REMARK    5  A    between atoms: _12  and  _13
REMARK    6  A    between atoms: _15  and  _17
REMARK    7  A    between atoms: _17  and  _18
REMARK    8  A    between atoms: _17  and  _20
REMARK    9  A    between atoms: _20  and  _21
REMARK   10  A    between atoms: _26  and  _28
REMARK   11  A    between atoms: _28  and  _29
REMARK   12  A    between atoms: _28  and  _31
REMARK   13  A    between atoms: _34  and  _36
REMARK   14  A    between atoms: _36  and  _37
REMARK   15  A    between atoms: _36  and  _39
REMARK   16  A    between atoms: _39  and  _40
REMARK   17  A    between atoms: _43  and  _45
REMARK   18  A    between atoms: _45  and  _46
REMARK   19  A    between atoms: _45  and  _48
REMARK   20  A    between atoms: _48  and  _49
REMARK   21  A    between atoms: _52  and  _54
REMARK   22  A    between atoms: _54  and  _55
REMARK   23  A    between atoms: _54  and  _57
REMARK   24  A    between atoms: _57  and  _58
REMARK   25  A    between atoms: _58  and  _59
REMARK   26  A    between atoms: _64  and  _66
REMARK   27  A    between atoms: _66  and  _67
REMARK   28  A    between atoms: _66  and  _69
REMARK   29  A    between atoms: _69  and  _70
REMARK   30  A    between atoms: _73  and  _75
REMARK   31  A    between atoms: _75  and  _76
REMARK   32  A    between atoms: _75  and  _78
REMARK   33  A    between atoms: _78  and  _79
REMARK   34  A    between atoms: _79  and  _80
REMARK   35  A    between atoms: _82  and  _84
REMARK   36  A    between atoms: _84  and  _85
REMARK   37  A    between atoms: _84  and  _87
REMARK   38  A    between atoms: _87  and  _88
REMARK   39  A    between atoms: _93  and  _95
REMARK   40  A    between atoms: _95  and  _96
REMARK   41  A    between atoms: _95  and  _98
REMARK   42  A    between atoms: _98  and  _99
REMARK   43  A    between atoms: _104  and  _106
REMARK   44  A    between atoms: _106  and  _107
REMARK   45  A    between atoms: _106  and  _109
REMARK   46  A    between atoms: _109  and  _110
REMARK   47  A    between atoms: _110  and  _111
REMARK   48  A    between atoms: _111  and  _112
REMARK   49  A    between atoms: _121  and  _123
REMARK   50  A    between atoms: _123  and  _124
REMARK   51  A    between atoms: _123  and  _126
REMARK   52  A    between atoms: _126  and  _127
REMARK   53  A    between atoms: _132  and  _134
REMARK   54  A    between atoms: _134  and  _135
REMARK   55  A    between atoms: _134  and  _137
REMARK   56  A    between atoms: _137  and  _138
REMARK   57  A    between atoms: _138  and  _139
REMARK   58  A    between atoms: _139  and  _141
REMARK   59  A    between atoms: _141  and  MG_450
REMARK   60  A    between atoms: _142  and  _144
REMARK   61  A    between atoms: _144  and  _145
REMARK   62  A    between atoms: _144  and  _147
REMARK   63  A    between atoms: _147  and  _148
REMARK   64  A    between atoms: _153  and  _155
REMARK   65  A    between atoms: _155  and  _156
REMARK   66  A    between atoms: _155  and  _158
REMARK   67  A    between atoms: _158  and  _159
REMARK   68  A    between atoms: _159  and  _160
REMARK   69  A    between atoms: _162  and  _164
REMARK   70  A    between atoms: _164  and  _165
REMARK   71  A    between atoms: _164  and  _167
REMARK   72  A    between atoms: _167  and  _168
REMARK   73  A    between atoms: _173  and  _175
REMARK   74  A    between atoms: _175  and  _176
REMARK   75  A    between atoms: _175  and  _178
REMARK   76  A    between atoms: _178  and  _179
REMARK   77  A    between atoms: _179  and  _180
REMARK   78  A    between atoms: _180  and  _181
REMARK   79  A    between atoms: _181  and  MG_450
REMARK   80  A    between atoms: _183  and  _185
REMARK   81  A    between atoms: _185  and  _186
REMARK   82  A    between atoms: _185  and  _188
REMARK   83  A    between atoms: _188  and  _189
REMARK   84  A    between atoms: _189  and  _190
REMARK   85  A    between atoms: _193  and  _195
REMARK   86  A    between atoms: _195  and  _196
REMARK   87  A    between atoms: _195  and  _198
REMARK   88  A    between atoms: _198  and  _199
REMARK   89  A    between atoms: _199  and  _200
REMARK   90  A    between atoms: _202  and  _204
REMARK   91  A    between atoms: _204  and  _205
REMARK   92  A    between atoms: _204  and  _207
REMARK   93  A    between atoms: _207  and  _208
REMARK   94  A    between atoms: _213  and  _214
REMARK   95  A    between atoms: _216  and  _218
REMARK   96  A    between atoms: _218  and  _219
REMARK   97  A    between atoms: _218  and  _221
REMARK   98  A    between atoms: _221  and  _222
REMARK   99  A    between atoms: _222  and  _223
REMARK  100  A    between atoms: _223  and  _224
REMARK  101  A    between atoms: _224  and  _225
REMARK  102  A    between atoms: _229  and  _231
REMARK  103  A    between atoms: _231  and  _232
REMARK  104  A    between atoms: _231  and  _234
REMARK  105  A    between atoms: _236  and  _238
REMARK  106  A    between atoms: _238  and  _239
REMARK  107  A    between atoms: _238  and  _241
REMARK  108  A    between atoms: _241  and  _242
REMARK  109  A    between atoms: _242  and  _243
REMARK  110  A    between atoms: _246  and  _248
REMARK  111  A    between atoms: _248  and  _249
REMARK  112  A    between atoms: _248  and  _251
REMARK  113  A    between atoms: _251  and  _252
REMARK  114  A    between atoms: _257  and  _259
REMARK  115  A    between atoms: _259  and  _260
REMARK  116  A    between atoms: _263  and  _265
REMARK  117  A    between atoms: _265  and  _266
REMARK  118  A    between atoms: _265  and  _268
REMARK  119  A    between atoms: _268  and  _269
REMARK  120  A    between atoms: _269  and  _270
REMARK  121  A    between atoms: _272  and  _274
REMARK  122  A    between atoms: _274  and  _275
REMARK  123  A    between atoms: _274  and  _277
REMARK  124  A    between atoms: _277  and  _278
REMARK  125  A    between atoms: _288  and  _290
REMARK  126  A    between atoms: _290  and  _291
REMARK  127  A    between atoms: _290  and  _293
REMARK  128  A    between atoms: _293  and  _294
REMARK  129  A    between atoms: _297  and  _299
REMARK  130  A    between atoms: _299  and  _300
REMARK  131  A    between atoms: _299  and  _302
REMARK  132  A    between atoms: _302  and  _303
REMARK  133  A    between atoms: _303  and  _304
REMARK  134  A    between atoms: _309  and  _311
REMARK  135  A    between atoms: _311  and  _312
REMARK  136  A    between atoms: _311  and  _314
REMARK  137  A    between atoms: _314  and  _315
REMARK  138  A    between atoms: _318  and  _320
REMARK  139  A    between atoms: _320  and  _321
REMARK  140  A    between atoms: _320  and  _323
REMARK  141  A    between atoms: _323  and  _324
REMARK  142  A    between atoms: _324  and  _325
REMARK  143  A    between atoms: _330  and  _332
REMARK  144  A    between atoms: _332  and  _333
REMARK  145  A    between atoms: _332  and  _335
REMARK  146  A    between atoms: _335  and  _336
REMARK  147  A    between atoms: _342  and  _344
REMARK  148  A    between atoms: _344  and  _345
REMARK  149  A    between atoms: _344  and  _347
REMARK  150  A    between atoms: _349  and  _351
REMARK  151  A    between atoms: _351  and  _352
REMARK  152  A    between atoms: _351  and  _354
REMARK  153  A    between atoms: _354  and  _355
REMARK  154  A    between atoms: _355  and  _356
REMARK  155  A    between atoms: _358  and  _360
REMARK  156  A    between atoms: _360  and  _361
REMARK  157  A    between atoms: _360  and  _363
REMARK  158  A    between atoms: _363  and  _364
REMARK  159  A    between atoms: _369  and  _371
REMARK  160  A    between atoms: _371  and  _372
REMARK  161  A    between atoms: _374  and  _376
REMARK  162  A    between atoms: _376  and  _377
REMARK  163  A    between atoms: _376  and  _379
REMARK  164  A    between atoms: _382  and  _384
REMARK  165  A    between atoms: _384  and  _385
REMARK  166  A    between atoms: _384  and  _387
REMARK  167  A    between atoms: _387  and  _388
REMARK  168  A    between atoms: _391  and  _393
REMARK  169  A    between atoms: _393  and  _394
REMARK  170  A    between atoms: _393  and  _396
REMARK  171  A    between atoms: _396  and  _397
REMARK  172  A    between atoms: _399  and  _401
REMARK  173  A    between atoms: _401  and  _402
REMARK  174  A    between atoms: _401  and  _404
REMARK  175  A    between atoms: _404  and  _405
REMARK  176  A    between atoms: _415  and  _417
REMARK  177  A    between atoms: _417  and  _418
REMARK  178  A    between atoms: _417  and  _420
REMARK  179  A    between atoms: _420  and  _421
REMARK  180  A    between atoms: _423  and  _425
REMARK  181  A    between atoms: _425  and  _426
REMARK  182  A    between atoms: _425  and  _428
REMARK  183  A    between atoms: _428  and  _429
REMARK  184  A    between atoms: _429  and  _430
REMARK  185  A    between atoms: _433  and  _435
REMARK  186  A    between atoms: _435  and  _436
REMARK  187  A    between atoms: _435  and  _438
REMARK  188  A    between atoms: _438  and  _439
REMARK  189  A    between atoms: _439  and  _440
REMARK  190  A    between atoms: _440  and  _441
REMARK                            x       y       z     vdW  Elec       q    Type
REMARK                         _______ _______ _______ _____ _____    ______ ____
ROOT
ATOM      1  O   HOH     1      14.015  25.703  81.383  0.00  0.00    +0.000 OA
ENDROOT
TORSDOF 0
REMARK  Name = ../refined-set-2016/3muz/3muz_pocket.pdb
REMARK  190 active torsions:
REMARK  status: ('A' for Active; 'I' for Inactive)
REMARK    1  A    between atoms: _1  and  _3
REMARK    2  A    between atoms: _3  and  _4
REMARK    3  A    between atoms: _3  and  _6
REMARK    4  A    between atoms: _6  and  _7
REMARK    5  A    between atoms: _12  and  _13
REMARK    6  A    between atoms: _15  and  _17
REMARK    7  A    between atoms: _17  and  _18
REMARK    8  A    between atoms: _17  and  _20
REMARK    9  A    between atoms: _20  and  _21
REMARK   10  A    between atoms: _26  and  _28
REMARK   11  A    between atoms: _28  and  _29
REMARK   12  A    between atoms: _28  and  _31
REMARK   13  A    between atoms: _34  and  _36
REMARK   14  A    between atoms: _36  and  _37
REMARK   15  A    between atoms: _36  and  _39
REMARK   16  A    between atoms: _39  and  _40
REMARK   17  A    between atoms: _43  and  _45
REMARK   18  A    between atoms: _45  and  _46
REMARK   19  A    between atoms: _45  and  _48
REMARK   20  A    between atoms: _48  and  _49
REMARK   21  A    between atoms: _52  and  _54
REMARK   22  A    between atoms: _54  and  _55
REMARK   23  A    between atoms: _54  and  _57
REMARK   24  A    between atoms: _57  and  _58
REMARK   25  A    between atoms: _58  and  _59
REMARK   26  A    between atoms: _64  and  _66
REMARK   27  A    between atoms: _66  and  _67
REMARK   28  A    between atoms: _66  and  _69
REMARK   29  A    between atoms: _69  and  _70
REMARK   30  A    between atoms: _73  and  _75
REMARK   31  A    between atoms: _75  and  _76
REMARK   32  A    between atoms: _75  and  _78
REMARK   33  A    between atoms: _78  and  _79
REMARK   34  A    between atoms: _79  and  _80
REMARK   35  A    between atoms: _82  and  _84
REMARK   36  A    between atoms: _84  and  _85
REMARK   37  A    between atoms: _84  and  _87
REMARK   38  A    between atoms: _87  and  _88
REMARK   39  A    between atoms: _93  and  _95
REMARK   40  A    between atoms: _95  and  _96
REMARK   41  A    between atoms: _95  and  _98
REMARK   42  A    between atoms: _98  and  _99
REMARK   43  A    between atoms: _104  and  _106
REMARK   44  A    between atoms: _106  and  _107
REMARK   45  A    between atoms: _106  and  _109
REMARK   46  A    between atoms: _109  and  _110
REMARK   47  A    between atoms: _110  and  _111
REMARK   48  A    between atoms: _111  and  _112
REMARK   49  A    between atoms: _121  and  _123
REMARK   50  A    between atoms: _123  and  _124
REMARK   51  A    between atoms: _123  and  _126
REMARK   52  A    between atoms: _126  and  _127
REMARK   53  A    between atoms: _132  and  _134
REMARK   54  A    between atoms: _134  and  _135
REMARK   55  A    between atoms: _134  and  _137
REMARK   56  A    between atoms: _137  and  _138
REMARK   57  A    between atoms: _138  and  _139
REMARK   58  A    between atoms: _139  and  _141
REMARK   59  A    between atoms: _141  and  MG_450
REMARK   60  A    between atoms: _142  and  _144
REMARK   61  A    between atoms: _144  and  _145
REMARK   62  A    between atoms: _144  and  _147
REMARK   63  A    between atoms: _147  and  _148
REMARK   64  A    between atoms: _153  and  _155
REMARK   65  A    between atoms: _155  and  _156
REMARK   66  A    between atoms: _155  and  _158
REMARK   67  A    between atoms: _158  and  _159
REMARK   68  A    between atoms: _159  and  _160
REMARK   69  A    between atoms: _162  and  _164
REMARK   70  A    between atoms: _164  and  _165
REMARK   71  A    between atoms: _164  and  _167
REMARK   72  A    between atoms: _167  and  _168
REMARK   73  A    between atoms: _173  and  _175
REMARK   74  A    between atoms: _175  and  _176
REMARK   75  A    between atoms: _175  and  _178
REMARK   76  A    between atoms: _178  and  _179
REMARK   77  A    between atoms: _179  and  _180
REMARK   78  A    between atoms: _180  and  _181
REMARK   79  A    between atoms: _181  and  MG_450
REMARK   80  A    between atoms: _183  and  _185
REMARK   81  A    between atoms: _185  and  _186
REMARK   82  A    between atoms: _185  and  _188
REMARK   83  A    between atoms: _188  and  _189
REMARK   84  A    between atoms: _189  and  _190
REMARK   85  A    between atoms: _193  and  _195
REMARK   86  A    between atoms: _195  and  _196
REMARK   87  A    between atoms: _195  and  _198
REMARK   88  A    between atoms: _198  and  _199
REMARK   89  A    between atoms: _199  and  _200
REMARK   90  A    between atoms: _202  and  _204
REMARK   91  A    between atoms: _204  and  _205
REMARK   92  A    between atoms: _204  and  _207
REMARK   93  A    between atoms: _207  and  _208
REMARK   94  A    between atoms: _213  and  _214
REMARK   95  A    between atoms: _216  and  _218
REMARK   96  A    between atoms: _218  and  _219
REMARK   97  A    between atoms: _218  and  _221
REMARK   98  A    between atoms: _221  and  _222
REMARK   99  A    between atoms: _222  and  _223
REMARK  100  A    between atoms: _223  and  _224
REMARK  101  A    between atoms: _224  and  _225
REMARK  102  A    between atoms: _229  and  _231
REMARK  103  A    between atoms: _231  and  _232
REMARK  104  A    between atoms: _231  and  _234
REMARK  105  A    between atoms: _236  and  _238
REMARK  106  A    between atoms: _238  and  _239
REMARK  107  A    between atoms: _238  and  _241
REMARK  108  A    between atoms: _241  and  _242
REMARK  109  A    between atoms: _242  and  _243
REMARK  110  A    between atoms: _246  and  _248
REMARK  111  A    between atoms: _248  and  _249
REMARK  112  A    between atoms: _248  and  _251
REMARK  113  A    between atoms: _251  and  _252
REMARK  114  A    between atoms: _257  and  _259
REMARK  115  A    between atoms: _259  and  _260
REMARK  116  A    between atoms: _263  and  _265
REMARK  117  A    between atoms: _265  and  _266
REMARK  118  A    between atoms: _265  and  _268
REMARK  119  A    between atoms: _268  and  _269
REMARK  120  A    between atoms: _269  and  _270
REMARK  121  A    between atoms: _272  and  _274
REMARK  122  A    between atoms: _274  and  _275
REMARK  123  A    between atoms: _274  and  _277
REMARK  124  A    between atoms: _277  and  _278
REMARK  125  A    between atoms: _288  and  _290
REMARK  126  A    between atoms: _290  and  _291
REMARK  127  A    between atoms: _290  and  _293
REMARK  128  A    between atoms: _293  and  _294
REMARK  129  A    between atoms: _297  and  _299
REMARK  130  A    between atoms: _299  and  _300
REMARK  131  A    between atoms: _299  and  _302
REMARK  132  A    between atoms: _302  and  _303
REMARK  133  A    between atoms: _303  and  _304
REMARK  134  A    between atoms: _309  and  _311
REMARK  135  A    between atoms: _311  and  _312
REMARK  136  A    between atoms: _311  and  _314
REMARK  137  A    between atoms: _314  and  _315
REMARK  138  A    between atoms: _318  and  _320
REMARK  139  A    between atoms: _320  and  _321
REMARK  140  A    between atoms: _320  and  _323
REMARK  141  A    between atoms: _323  and  _324
REMARK  142  A    between atoms: _324  and  _325
REMARK  143  A    between atoms: _330  and  _332
REMARK  144  A    between atoms: _332  and  _333
REMARK  145  A    between atoms: _332  and  _335
REMARK  146  A    between atoms: _335  and  _336
REMARK  147  A    between atoms: _342  and  _344
REMARK  148  A    between atoms: _344  and  _345
REMARK  149  A    between atoms: _344  and  _347
REMARK  150  A    between atoms: _349  and  _351
REMARK  151  A    between atoms: _351  and  _352
REMARK  152  A    between atoms: _351  and  _354
REMARK  153  A    between atoms: _354  and  _355
REMARK  154  A    between atoms: _355  and  _356
REMARK  155  A    between atoms: _358  and  _360
REMARK  156  A    between atoms: _360  and  _361
REMARK  157  A    between atoms: _360  and  _363
REMARK  158  A    between atoms: _363  and  _364
REMARK  159  A    between atoms: _369  and  _371
REMARK  160  A    between atoms: _371  and  _372
REMARK  161  A    between atoms: _374  and  _376
REMARK  162  A    between atoms: _376  and  _377
REMARK  163  A    between atoms: _376  and  _379
REMARK  164  A    between atoms: _382  and  _384
REMARK  165  A    between atoms: _384  and  _385
REMARK  166  A    between atoms: _384  and  _387
REMARK  167  A    between atoms: _387  and  _388
REMARK  168  A    between atoms: _391  and  _393
REMARK  169  A    between atoms: _393  and  _394
REMARK  170  A    between atoms: _393  and  _396
REMARK  171  A    between atoms: _396  and  _397
REMARK  172  A    between atoms: _399  and  _401
REMARK  173  A    between atoms: _401  and  _402
REMARK  174  A    between atoms: _401  and  _404
REMARK  175  A    between atoms: _404  and  _405
REMARK  176  A    between atoms: _415  and  _417
REMARK  177  A    between atoms: _417  and  _418
REMARK  178  A    between atoms: _417  and  _420
REMARK  179  A    between atoms: _420  and  _421
REMARK  180  A    between atoms: _423  and  _425
REMARK  181  A    between atoms: _425  and  _426
REMARK  182  A    between atoms: _425  and  _428
REMARK  183  A    between atoms: _428  and  _429
REMARK  184  A    between atoms: _429  and  _430
REMARK  185  A    between atoms: _433  and  _435
REMARK  186  A    between atoms: _435  and  _436
REMARK  187  A    between atoms: _435  and  _438
REMARK  188  A    between atoms: _438  and  _439
REMARK  189  A    between atoms: _439  and  _440
REMARK  190  A    between atoms: _440  and  _441
REMARK                            x       y       z     vdW  Elec       q    Type
REMARK                         _______ _______ _______ _____ _____    ______ ____
ROOT
ATOM      1  O   HOH     1      17.888  27.968  81.115  0.00  0.00    +0.000 OA
ENDROOT
TORSDOF 0
REMARK  Name = ../refined-set-2016/3muz/3muz_pocket.pdb
REMARK  190 active torsions:
REMARK  status: ('A' for Active; 'I' for Inactive)
REMARK    1  A    between atoms: _1  and  _3
REMARK    2  A    between atoms: _3  and  _4
REMARK    3  A    between atoms: _3  and  _6
REMARK    4  A    between atoms: _6  and  _7
REMARK    5  A    between atoms: _12  and  _13
REMARK    6  A    between atoms: _15  and  _17
REMARK    7  A    between atoms: _17  and  _18
REMARK    8  A    between atoms: _17  and  _20
REMARK    9  A    between atoms: _20  and  _21
REMARK   10  A    between atoms: _26  and  _28
REMARK   11  A    between atoms: _28  and  _29
REMARK   12  A    between atoms: _28  and  _31
REMARK   13  A    between atoms: _34  and  _36
REMARK   14  A    between atoms: _36  and  _37
REMARK   15  A    between atoms: _36  and  _39
REMARK   16  A    between atoms: _39  and  _40
REMARK   17  A    between atoms: _43  and  _45
REMARK   18  A    between atoms: _45  and  _46
REMARK   19  A    between atoms: _45  and  _48
REMARK   20  A    between atoms: _48  and  _49
REMARK   21  A    between atoms: _52  and  _54
REMARK   22  A    between atoms: _54  and  _55
REMARK   23  A    between atoms: _54  and  _57
REMARK   24  A    between atoms: _57  and  _58
REMARK   25  A    between atoms: _58  and  _59
REMARK   26  A    between atoms: _64  and  _66
REMARK   27  A    between atoms: _66  and  _67
REMARK   28  A    between atoms: _66  and  _69
REMARK   29  A    between atoms: _69  and  _70
REMARK   30  A    between atoms: _73  and  _75
REMARK   31  A    between atoms: _75  and  _76
REMARK   32  A    between atoms: _75  and  _78
REMARK   33  A    between atoms: _78  and  _79
REMARK   34  A    between atoms: _79  and  _80
REMARK   35  A    between atoms: _82  and  _84
REMARK   36  A    between atoms: _84  and  _85
REMARK   37  A    between atoms: _84  and  _87
REMARK   38  A    between atoms: _87  and  _88
REMARK   39  A    between atoms: _93  and  _95
REMARK   40  A    between atoms: _95  and  _96
REMARK   41  A    between atoms: _95  and  _98
REMARK   42  A    between atoms: _98  and  _99
REMARK   43  A    between atoms: _104  and  _106
REMARK   44  A    between atoms: _106  and  _107
REMARK   45  A    between atoms: _106  and  _109
REMARK   46  A    between atoms: _109  and  _110
REMARK   47  A    between atoms: _110  and  _111
REMARK   48  A    between atoms: _111  and  _112
REMARK   49  A    between atoms: _121  and  _123
REMARK   50  A    between atoms: _123  and  _124
REMARK   51  A    between atoms: _123  and  _126
REMARK   52  A    between atoms: _126  and  _127
REMARK   53  A    between atoms: _132  and  _134
REMARK   54  A    between atoms: _134  and  _135
REMARK   55  A    between atoms: _134  and  _137
REMARK   56  A    between atoms: _137  and  _138
REMARK   57  A    between atoms: _138  and  _139
REMARK   58  A    between atoms: _139  and  _141
REMARK   59  A    between atoms: _141  and  MG_450
REMARK   60  A    between atoms: _142  and  _144
REMARK   61  A    between atoms: _144  and  _145
REMARK   62  A    between atoms: _144  and  _147
REMARK   63  A    between atoms: _147  and  _148
REMARK   64  A    between atoms: _153  and  _155
REMARK   65  A    between atoms: _155  and  _156
REMARK   66  A    between atoms: _155  and  _158
REMARK   67  A    between atoms: _158  and  _159
REMARK   68  A    between atoms: _159  and  _160
REMARK   69  A    between atoms: _162  and  _164
REMARK   70  A    between atoms: _164  and  _165
REMARK   71  A    between atoms: _164  and  _167
REMARK   72  A    between atoms: _167  and  _168
REMARK   73  A    between atoms: _173  and  _175
REMARK   74  A    between atoms: _175  and  _176
REMARK   75  A    between atoms: _175  and  _178
REMARK   76  A    between atoms: _178  and  _179
REMARK   77  A    between atoms: _179  and  _180
REMARK   78  A    between atoms: _180  and  _181
REMARK   79  A    between atoms: _181  and  MG_450
REMARK   80  A    between atoms: _183  and  _185
REMARK   81  A    between atoms: _185  and  _186
REMARK   82  A    between atoms: _185  and  _188
REMARK   83  A    between atoms: _188  and  _189
REMARK   84  A    between atoms: _189  and  _190
REMARK   85  A    between atoms: _193  and  _195
REMARK   86  A    between atoms: _195  and  _196
REMARK   87  A    between atoms: _195  and  _198
REMARK   88  A    between atoms: _198  and  _199
REMARK   89  A    between atoms: _199  and  _200
REMARK   90  A    between atoms: _202  and  _204
REMARK   91  A    between atoms: _204  and  _205
REMARK   92  A    between atoms: _204  and  _207
REMARK   93  A    between atoms: _207  and  _208
REMARK   94  A    between atoms: _213  and  _214
REMARK   95  A    between atoms: _216  and  _218
REMARK   96  A    between atoms: _218  and  _219
REMARK   97  A    between atoms: _218  and  _221
REMARK   98  A    between atoms: _221  and  _222
REMARK   99  A    between atoms: _222  and  _223
REMARK  100  A    between atoms: _223  and  _224
REMARK  101  A    between atoms: _224  and  _225
REMARK  102  A    between atoms: _229  and  _231
REMARK  103  A    between atoms: _231  and  _232
REMARK  104  A    between atoms: _231  and  _234
REMARK  105  A    between atoms: _236  and  _238
REMARK  106  A    between atoms: _238  and  _239
REMARK  107  A    between atoms: _238  and  _241
REMARK  108  A    between atoms: _241  and  _242
REMARK  109  A    between atoms: _242  and  _243
REMARK  110  A    between atoms: _246  and  _248
REMARK  111  A    between atoms: _248  and  _249
REMARK  112  A    between atoms: _248  and  _251
REMARK  113  A    between atoms: _251  and  _252
REMARK  114  A    between atoms: _257  and  _259
REMARK  115  A    between atoms: _259  and  _260
REMARK  116  A    between atoms: _263  and  _265
REMARK  117  A    between atoms: _265  and  _266
REMARK  118  A    between atoms: _265  and  _268
REMARK  119  A    between atoms: _268  and  _269
REMARK  120  A    between atoms: _269  and  _270
REMARK  121  A    between atoms: _272  and  _274
REMARK  122  A    between atoms: _274  and  _275
REMARK  123  A    between atoms: _274  and  _277
REMARK  124  A    between atoms: _277  and  _278
REMARK  125  A    between atoms: _288  and  _290
REMARK  126  A    between atoms: _290  and  _291
REMARK  127  A    between atoms: _290  and  _293
REMARK  128  A    between atoms: _293  and  _294
REMARK  129  A    between atoms: _297  and  _299
REMARK  130  A    between atoms: _299  and  _300
REMARK  131  A    between atoms: _299  and  _302
REMARK  132  A    between atoms: _302  and  _303
REMARK  133  A    between atoms: _303  and  _304
REMARK  134  A    between atoms: _309  and  _311
REMARK  135  A    between atoms: _311  and  _312
REMARK  136  A    between atoms: _311  and  _314
REMARK  137  A    between atoms: _314  and  _315
REMARK  138  A    between atoms: _318  and  _320
REMARK  139  A    between atoms: _320  and  _321
REMARK  140  A    between atoms: _320  and  _323
REMARK  141  A    between atoms: _323  and  _324
REMARK  142  A    between atoms: _324  and  _325
REMARK  143  A    between atoms: _330  and  _332
REMARK  144  A    between atoms: _332  and  _333
REMARK  145  A    between atoms: _332  and  _335
REMARK  146  A    between atoms: _335  and  _336
REMARK  147  A    between atoms: _342  and  _344
REMARK  148  A    between atoms: _344  and  _345
REMARK  149  A    between atoms: _344  and  _347
REMARK  150  A    between atoms: _349  and  _351
REMARK  151  A    between atoms: _351  and  _352
REMARK  152  A    between atoms: _351  and  _354
REMARK  153  A    between atoms: _354  and  _355
REMARK  154  A    between atoms: _355  and  _356
REMARK  155  A    between atoms: _358  and  _360
REMARK  156  A    between atoms: _360  and  _361
REMARK  157  A    between atoms: _360  and  _363
REMARK  158  A    between atoms: _363  and  _364
REMARK  159  A    between atoms: _369  and  _371
REMARK  160  A    between atoms: _371  and  _372
REMARK  161  A    between atoms: _374  and  _376
REMARK  162  A    between atoms: _376  and  _377
REMARK  163  A    between atoms: _376  and  _379
REMARK  164  A    between atoms: _382  and  _384
REMARK  165  A    between atoms: _384  and  _385
REMARK  166  A    between atoms: _384  and  _387
REMARK  167  A    between atoms: _387  and  _388
REMARK  168  A    between atoms: _391  and  _393
REMARK  169  A    between atoms: _393  and  _394
REMARK  170  A    between atoms: _393  and  _396
REMARK  171  A    between atoms: _396  and  _397
REMARK  172  A    between atoms: _399  and  _401
REMARK  173  A    between atoms: _401  and  _402
REMARK  174  A    between atoms: _401  and  _404
REMARK  175  A    between atoms: _404  and  _405
REMARK  176  A    between atoms: _415  and  _417
REMARK  177  A    between atoms: _417  and  _418
REMARK  178  A    between atoms: _417  and  _420
REMARK  179  A    between atoms: _420  and  _421
REMARK  180  A    between atoms: _423  and  _425
REMARK  181  A    between atoms: _425  and  _426
REMARK  182  A    between atoms: _425  and  _428
REMARK  183  A    between atoms: _428  and  _429
REMARK  184  A    between atoms: _429  and  _430
REMARK  185  A    between atoms: _433  and  _435
REMARK  186  A    between atoms: _435  and  _436
REMARK  187  A    between atoms: _435  and  _438
REMARK  188  A    between atoms: _438  and  _439
REMARK  189  A    between atoms: _439  and  _440
REMARK  190  A    between atoms: _440  and  _441
REMARK                            x       y       z     vdW  Elec       q    Type
REMARK                         _______ _______ _______ _____ _____    ______ ____
ROOT
ATOM      1  O   HOH     1      18.032  22.232  77.300  0.00  0.00    +0.000 OA
ENDROOT
TORSDOF 0
REMARK  Name = ../refined-set-2016/3muz/3muz_pocket.pdb
REMARK  190 active torsions:
REMARK  status: ('A' for Active; 'I' for Inactive)
REMARK    1  A    between atoms: _1  and  _3
REMARK    2  A    between atoms: _3  and  _4
REMARK    3  A    between atoms: _3  and  _6
REMARK    4  A    between atoms: _6  and  _7
REMARK    5  A    between atoms: _12  and  _13
REMARK    6  A    between atoms: _15  and  _17
REMARK    7  A    between atoms: _17  and  _18
REMARK    8  A    between atoms: _17  and  _20
REMARK    9  A    between atoms: _20  and  _21
REMARK   10  A    between atoms: _26  and  _28
REMARK   11  A    between atoms: _28  and  _29
REMARK   12  A    between atoms: _28  and  _31
REMARK   13  A    between atoms: _34  and  _36
REMARK   14  A    between atoms: _36  and  _37
REMARK   15  A    between atoms: _36  and  _39
REMARK   16  A    between atoms: _39  and  _40
REMARK   17  A    between atoms: _43  and  _45
REMARK   18  A    between atoms: _45  and  _46
REMARK   19  A    between atoms: _45  and  _48
REMARK   20  A    between atoms: _48  and  _49
REMARK   21  A    between atoms: _52  and  _54
REMARK   22  A    between atoms: _54  and  _55
REMARK   23  A    between atoms: _54  and  _57
REMARK   24  A    between atoms: _57  and  _58
REMARK   25  A    between atoms: _58  and  _59
REMARK   26  A    between atoms: _64  and  _66
REMARK   27  A    between atoms: _66  and  _67
REMARK   28  A    between atoms: _66  and  _69
REMARK   29  A    between atoms: _69  and  _70
REMARK   30  A    between atoms: _73  and  _75
REMARK   31  A    between atoms: _75  and  _76
REMARK   32  A    between atoms: _75  and  _78
REMARK   33  A    between atoms: _78  and  _79
REMARK   34  A    between atoms: _79  and  _80
REMARK   35  A    between atoms: _82  and  _84
REMARK   36  A    between atoms: _84  and  _85
REMARK   37  A    between atoms: _84  and  _87
REMARK   38  A    between atoms: _87  and  _88
REMARK   39  A    between atoms: _93  and  _95
REMARK   40  A    between atoms: _95  and  _96
REMARK   41  A    between atoms: _95  and  _98
REMARK   42  A    between atoms: _98  and  _99
REMARK   43  A    between atoms: _104  and  _106
REMARK   44  A    between atoms: _106  and  _107
REMARK   45  A    between atoms: _106  and  _109
REMARK   46  A    between atoms: _109  and  _110
REMARK   47  A    between atoms: _110  and  _111
REMARK   48  A    between atoms: _111  and  _112
REMARK   49  A    between atoms: _121  and  _123
REMARK   50  A    between atoms: _123  and  _124
REMARK   51  A    between atoms: _123  and  _126
REMARK   52  A    between atoms: _126  and  _127
REMARK   53  A    between atoms: _132  and  _134
REMARK   54  A    between atoms: _134  and  _135
REMARK   55  A    between atoms: _134  and  _137
REMARK   56  A    between atoms: _137  and  _138
REMARK   57  A    between atoms: _138  and  _139
REMARK   58  A    between atoms: _139  and  _141
REMARK   59  A    between atoms: _141  and  MG_450
REMARK   60  A    between atoms: _142  and  _144
REMARK   61  A    between atoms: _144  and  _145
REMARK   62  A    between atoms: _144  and  _147
REMARK   63  A    between atoms: _147  and  _148
REMARK   64  A    between atoms: _153  and  _155
REMARK   65  A    between atoms: _155  and  _156
REMARK   66  A    between atoms: _155  and  _158
REMARK   67  A    between atoms: _158  and  _159
REMARK   68  A    between atoms: _159  and  _160
REMARK   69  A    between atoms: _162  and  _164
REMARK   70  A    between atoms: _164  and  _165
REMARK   71  A    between atoms: _164  and  _167
REMARK   72  A    between atoms: _167  and  _168
REMARK   73  A    between atoms: _173  and  _175
REMARK   74  A    between atoms: _175  and  _176
REMARK   75  A    between atoms: _175  and  _178
REMARK   76  A    between atoms: _178  and  _179
REMARK   77  A    between atoms: _179  and  _180
REMARK   78  A    between atoms: _180  and  _181
REMARK   79  A    between atoms: _181  and  MG_450
REMARK   80  A    between atoms: _183  and  _185
REMARK   81  A    between atoms: _185  and  _186
REMARK   82  A    between atoms: _185  and  _188
REMARK   83  A    between atoms: _188  and  _189
REMARK   84  A    between atoms: _189  and  _190
REMARK   85  A    between atoms: _193  and  _195
REMARK   86  A    between atoms: _195  and  _196
REMARK   87  A    between atoms: _195  and  _198
REMARK   88  A    between atoms: _198  and  _199
REMARK   89  A    between atoms: _199  and  _200
REMARK   90  A    between atoms: _202  and  _204
REMARK   91  A    between atoms: _204  and  _205
REMARK   92  A    between atoms: _204  and  _207
REMARK   93  A    between atoms: _207  and  _208
REMARK   94  A    between atoms: _213  and  _214
REMARK   95  A    between atoms: _216  and  _218
REMARK   96  A    between atoms: _218  and  _219
REMARK   97  A    between atoms: _218  and  _221
REMARK   98  A    between atoms: _221  and  _222
REMARK   99  A    between atoms: _222  and  _223
REMARK  100  A    between atoms: _223  and  _224
REMARK  101  A    between atoms: _224  and  _225
REMARK  102  A    between atoms: _229  and  _231
REMARK  103  A    between atoms: _231  and  _232
REMARK  104  A    between atoms: _231  and  _234
REMARK  105  A    between atoms: _236  and  _238
REMARK  106  A    between atoms: _238  and  _239
REMARK  107  A    between atoms: _238  and  _241
REMARK  108  A    between atoms: _241  and  _242
REMARK  109  A    between atoms: _242  and  _243
REMARK  110  A    between atoms: _246  and  _248
REMARK  111  A    between atoms: _248  and  _249
REMARK  112  A    between atoms: _248  and  _251
REMARK  113  A    between atoms: _251  and  _252
REMARK  114  A    between atoms: _257  and  _259
REMARK  115  A    between atoms: _259  and  _260
REMARK  116  A    between atoms: _263  and  _265
REMARK  117  A    between atoms: _265  and  _266
REMARK  118  A    between atoms: _265  and  _268
REMARK  119  A    between atoms: _268  and  _269
REMARK  120  A    between atoms: _269  and  _270
REMARK  121  A    between atoms: _272  and  _274
REMARK  122  A    between atoms: _274  and  _275
REMARK  123  A    between atoms: _274  and  _277
REMARK  124  A    between atoms: _277  and  _278
REMARK  125  A    between atoms: _288  and  _290
REMARK  126  A    between atoms: _290  and  _291
REMARK  127  A    between atoms: _290  and  _293
REMARK  128  A    between atoms: _293  and  _294
REMARK  129  A    between atoms: _297  and  _299
REMARK  130  A    between atoms: _299  and  _300
REMARK  131  A    between atoms: _299  and  _302
REMARK  132  A    between atoms: _302  and  _303
REMARK  133  A    between atoms: _303  and  _304
REMARK  134  A    between atoms: _309  and  _311
REMARK  135  A    between atoms: _311  and  _312
REMARK  136  A    between atoms: _311  and  _314
REMARK  137  A    between atoms: _314  and  _315
REMARK  138  A    between atoms: _318  and  _320
REMARK  139  A    between atoms: _320  and  _321
REMARK  140  A    between atoms: _320  and  _323
REMARK  141  A    between atoms: _323  and  _324
REMARK  142  A    between atoms: _324  and  _325
REMARK  143  A    between atoms: _330  and  _332
REMARK  144  A    between atoms: _332  and  _333
REMARK  145  A    between atoms: _332  and  _335
REMARK  146  A    between atoms: _335  and  _336
REMARK  147  A    between atoms: _342  and  _344
REMARK  148  A    between atoms: _344  and  _345
REMARK  149  A    between atoms: _344  and  _347
REMARK  150  A    between atoms: _349  and  _351
REMARK  151  A    between atoms: _351  and  _352
REMARK  152  A    between atoms: _351  and  _354
REMARK  153  A    between atoms: _354  and  _355
REMARK  154  A    between atoms: _355  and  _356
REMARK  155  A    between atoms: _358  and  _360
REMARK  156  A    between atoms: _360  and  _361
REMARK  157  A    between atoms: _360  and  _363
REMARK  158  A    between atoms: _363  and  _364
REMARK  159  A    between atoms: _369  and  _371
REMARK  160  A    between atoms: _371  and  _372
REMARK  161  A    between atoms: _374  and  _376
REMARK  162  A    between atoms: _376  and  _377
REMARK  163  A    between atoms: _376  and  _379
REMARK  164  A    between atoms: _382  and  _384
REMARK  165  A    between atoms: _384  and  _385
REMARK  166  A    between atoms: _384  and  _387
REMARK  167  A    between atoms: _387  and  _388
REMARK  168  A    between atoms: _391  and  _393
REMARK  169  A    between atoms: _393  and  _394
REMARK  170  A    between atoms: _393  and  _396
REMARK  171  A    between atoms: _396  and  _397
REMARK  172  A    between atoms: _399  and  _401
REMARK  173  A    between atoms: _401  and  _402
REMARK  174  A    between atoms: _401  and  _404
REMARK  175  A    between atoms: _404  and  _405
REMARK  176  A    between atoms: _415  and  _417
REMARK  177  A    between atoms: _417  and  _418
REMARK  178  A    between atoms: _417  and  _420
REMARK  179  A    between atoms: _420  and  _421
REMARK  180  A    between atoms: _423  and  _425
REMARK  181  A    between atoms: _425  and  _426
REMARK  182  A    between atoms: _425  and  _428
REMARK  183  A    between atoms: _428  and  _429
REMARK  184  A    between atoms: _429  and  _430
REMARK  185  A    between atoms: _433  and  _435
REMARK  186  A    between atoms: _435  and  _436
REMARK  187  A    between atoms: _435  and  _438
REMARK  188  A    between atoms: _438  and  _439
REMARK  189  A    between atoms: _439  and  _440
REMARK  190  A    between atoms: _440  and  _441
REMARK                            x       y       z     vdW  Elec       q    Type
REMARK                         _______ _______ _______ _____ _____    ______ ____
ROOT
ATOM      1  O   HOH     1      18.376  22.238  80.777  0.00  0.00    +0.000 OA
ENDROOT
TORSDOF 0
REMARK  Name = ../refined-set-2016/3muz/3muz_pocket.pdb
REMARK  190 active torsions:
REMARK  status: ('A' for Active; 'I' for Inactive)
REMARK    1  A    between atoms: _1  and  _3
REMARK    2  A    between atoms: _3  and  _4
REMARK    3  A    between atoms: _3  and  _6
REMARK    4  A    between atoms: _6  and  _7
REMARK    5  A    between atoms: _12  and  _13
REMARK    6  A    between atoms: _15  and  _17
REMARK    7  A    between atoms: _17  and  _18
REMARK    8  A    between atoms: _17  and  _20
REMARK    9  A    between atoms: _20  and  _21
REMARK   10  A    between atoms: _26  and  _28
REMARK   11  A    between atoms: _28  and  _29
REMARK   12  A    between atoms: _28  and  _31
REMARK   13  A    between atoms: _34  and  _36
REMARK   14  A    between atoms: _36  and  _37
REMARK   15  A    between atoms: _36  and  _39
REMARK   16  A    between atoms: _39  and  _40
REMARK   17  A    between atoms: _43  and  _45
REMARK   18  A    between atoms: _45  and  _46
REMARK   19  A    between atoms: _45  and  _48
REMARK   20  A    between atoms: _48  and  _49
REMARK   21  A    between atoms: _52  and  _54
REMARK   22  A    between atoms: _54  and  _55
REMARK   23  A    between atoms: _54  and  _57
REMARK   24  A    between atoms: _57  and  _58
REMARK   25  A    between atoms: _58  and  _59
REMARK   26  A    between atoms: _64  and  _66
REMARK   27  A    between atoms: _66  and  _67
REMARK   28  A    between atoms: _66  and  _69
REMARK   29  A    between atoms: _69  and  _70
REMARK   30  A    between atoms: _73  and  _75
REMARK   31  A    between atoms: _75  and  _76
REMARK   32  A    between atoms: _75  and  _78
REMARK   33  A    between atoms: _78  and  _79
REMARK   34  A    between atoms: _79  and  _80
REMARK   35  A    between atoms: _82  and  _84
REMARK   36  A    between atoms: _84  and  _85
REMARK   37  A    between atoms: _84  and  _87
REMARK   38  A    between atoms: _87  and  _88
REMARK   39  A    between atoms: _93  and  _95
REMARK   40  A    between atoms: _95  and  _96
REMARK   41  A    between atoms: _95  and  _98
REMARK   42  A    between atoms: _98  and  _99
REMARK   43  A    between atoms: _104  and  _106
REMARK   44  A    between atoms: _106  and  _107
REMARK   45  A    between atoms: _106  and  _109
REMARK   46  A    between atoms: _109  and  _110
REMARK   47  A    between atoms: _110  and  _111
REMARK   48  A    between atoms: _111  and  _112
REMARK   49  A    between atoms: _121  and  _123
REMARK   50  A    between atoms: _123  and  _124
REMARK   51  A    between atoms: _123  and  _126
REMARK   52  A    between atoms: _126  and  _127
REMARK   53  A    between atoms: _132  and  _134
REMARK   54  A    between atoms: _134  and  _135
REMARK   55  A    between atoms: _134  and  _137
REMARK   56  A    between atoms: _137  and  _138
REMARK   57  A    between atoms: _138  and  _139
REMARK   58  A    between atoms: _139  and  _141
REMARK   59  A    between atoms: _141  and  MG_450
REMARK   60  A    between atoms: _142  and  _144
REMARK   61  A    between atoms: _144  and  _145
REMARK   62  A    between atoms: _144  and  _147
REMARK   63  A    between atoms: _147  and  _148
REMARK   64  A    between atoms: _153  and  _155
REMARK   65  A    between atoms: _155  and  _156
REMARK   66  A    between atoms: _155  and  _158
REMARK   67  A    between atoms: _158  and  _159
REMARK   68  A    between atoms: _159  and  _160
REMARK   69  A    between atoms: _162  and  _164
REMARK   70  A    between atoms: _164  and  _165
REMARK   71  A    between atoms: _164  and  _167
REMARK   72  A    between atoms: _167  and  _168
REMARK   73  A    between atoms: _173  and  _175
REMARK   74  A    between atoms: _175  and  _176
REMARK   75  A    between atoms: _175  and  _178
REMARK   76  A    between atoms: _178  and  _179
REMARK   77  A    between atoms: _179  and  _180
REMARK   78  A    between atoms: _180  and  _181
REMARK   79  A    between atoms: _181  and  MG_450
REMARK   80  A    between atoms: _183  and  _185
REMARK   81  A    between atoms: _185  and  _186
REMARK   82  A    between atoms: _185  and  _188
REMARK   83  A    between atoms: _188  and  _189
REMARK   84  A    between atoms: _189  and  _190
REMARK   85  A    between atoms: _193  and  _195
REMARK   86  A    between atoms: _195  and  _196
REMARK   87  A    between atoms: _195  and  _198
REMARK   88  A    between atoms: _198  and  _199
REMARK   89  A    between atoms: _199  and  _200
REMARK   90  A    between atoms: _202  and  _204
REMARK   91  A    between atoms: _204  and  _205
REMARK   92  A    between atoms: _204  and  _207
REMARK   93  A    between atoms: _207  and  _208
REMARK   94  A    between atoms: _213  and  _214
REMARK   95  A    between atoms: _216  and  _218
REMARK   96  A    between atoms: _218  and  _219
REMARK   97  A    between atoms: _218  and  _221
REMARK   98  A    between atoms: _221  and  _222
REMARK   99  A    between atoms: _222  and  _223
REMARK  100  A    between atoms: _223  and  _224
REMARK  101  A    between atoms: _224  and  _225
REMARK  102  A    between atoms: _229  and  _231
REMARK  103  A    between atoms: _231  and  _232
REMARK  104  A    between atoms: _231  and  _234
REMARK  105  A    between atoms: _236  and  _238
REMARK  106  A    between atoms: _238  and  _239
REMARK  107  A    between atoms: _238  and  _241
REMARK  108  A    between atoms: _241  and  _242
REMARK  109  A    between atoms: _242  and  _243
REMARK  110  A    between atoms: _246  and  _248
REMARK  111  A    between atoms: _248  and  _249
REMARK  112  A    between atoms: _248  and  _251
REMARK  113  A    between atoms: _251  and  _252
REMARK  114  A    between atoms: _257  and  _259
REMARK  115  A    between atoms: _259  and  _260
REMARK  116  A    between atoms: _263  and  _265
REMARK  117  A    between atoms: _265  and  _266
REMARK  118  A    between atoms: _265  and  _268
REMARK  119  A    between atoms: _268  and  _269
REMARK  120  A    between atoms: _269  and  _270
REMARK  121  A    between atoms: _272  and  _274
REMARK  122  A    between atoms: _274  and  _275
REMARK  123  A    between atoms: _274  and  _277
REMARK  124  A    between atoms: _277  and  _278
REMARK  125  A    between atoms: _288  and  _290
REMARK  126  A    between atoms: _290  and  _291
REMARK  127  A    between atoms: _290  and  _293
REMARK  128  A    between atoms: _293  and  _294
REMARK  129  A    between atoms: _297  and  _299
REMARK  130  A    between atoms: _299  and  _300
REMARK  131  A    between atoms: _299  and  _302
REMARK  132  A    between atoms: _302  and  _303
REMARK  133  A    between atoms: _303  and  _304
REMARK  134  A    between atoms: _309  and  _311
REMARK  135  A    between atoms: _311  and  _312
REMARK  136  A    between atoms: _311  and  _314
REMARK  137  A    between atoms: _314  and  _315
REMARK  138  A    between atoms: _318  and  _320
REMARK  139  A    between atoms: _320  and  _321
REMARK  140  A    between atoms: _320  and  _323
REMARK  141  A    between atoms: _323  and  _324
REMARK  142  A    between atoms: _324  and  _325
REMARK  143  A    between atoms: _330  and  _332
REMARK  144  A    between atoms: _332  and  _333
REMARK  145  A    between atoms: _332  and  _335
REMARK  146  A    between atoms: _335  and  _336
REMARK  147  A    between atoms: _342  and  _344
REMARK  148  A    between atoms: _344  and  _345
REMARK  149  A    between atoms: _344  and  _347
REMARK  150  A    between atoms: _349  and  _351
REMARK  151  A    between atoms: _351  and  _352
REMARK  152  A    between atoms: _351  and  _354
REMARK  153  A    between atoms: _354  and  _355
REMARK  154  A    between atoms: _355  and  _356
REMARK  155  A    between atoms: _358  and  _360
REMARK  156  A    between atoms: _360  and  _361
REMARK  157  A    between atoms: _360  and  _363
REMARK  158  A    between atoms: _363  and  _364
REMARK  159  A    between atoms: _369  and  _371
REMARK  160  A    between atoms: _371  and  _372
REMARK  161  A    between atoms: _374  and  _376
REMARK  162  A    between atoms: _376  and  _377
REMARK  163  A    between atoms: _376  and  _379
REMARK  164  A    between atoms: _382  and  _384
REMARK  165  A    between atoms: _384  and  _385
REMARK  166  A    between atoms: _384  and  _387
REMARK  167  A    between atoms: _387  and  _388
REMARK  168  A    between atoms: _391  and  _393
REMARK  169  A    between atoms: _393  and  _394
REMARK  170  A    between atoms: _393  and  _396
REMARK  171  A    between atoms: _396  and  _397
REMARK  172  A    between atoms: _399  and  _401
REMARK  173  A    between atoms: _401  and  _402
REMARK  174  A    between atoms: _401  and  _404
REMARK  175  A    between atoms: _404  and  _405
REMARK  176  A    between atoms: _415  and  _417
REMARK  177  A    between atoms: _417  and  _418
REMARK  178  A    between atoms: _417  and  _420
REMARK  179  A    between atoms: _420  and  _421
REMARK  180  A    between atoms: _423  and  _425
REMARK  181  A    between atoms: _425  and  _426
REMARK  182  A    between atoms: _425  and  _428
REMARK  183  A    between atoms: _428  and  _429
REMARK  184  A    between atoms: _429  and  _430
REMARK  185  A    between atoms: _433  and  _435
REMARK  186  A    between atoms: _435  and  _436
REMARK  187  A    between atoms: _435  and  _438
REMARK  188  A    between atoms: _438  and  _439
REMARK  189  A    between atoms: _439  and  _440
REMARK  190  A    between atoms: _440  and  _441
REMARK                            x       y       z     vdW  Elec       q    Type
REMARK                         _______ _______ _______ _____ _____    ______ ____
ROOT
ATOM      1  O   HOH     1      18.383  32.234  73.060  0.00  0.00    +0.000 OA
ENDROOT
TORSDOF 0
REMARK  Name = ../refined-set-2016/3muz/3muz_pocket.pdb
REMARK  190 active torsions:
REMARK  status: ('A' for Active; 'I' for Inactive)
REMARK    1  A    between atoms: _1  and  _3
REMARK    2  A    between atoms: _3  and  _4
REMARK    3  A    between atoms: _3  and  _6
REMARK    4  A    between atoms: _6  and  _7
REMARK    5  A    between atoms: _12  and  _13
REMARK    6  A    between atoms: _15  and  _17
REMARK    7  A    between atoms: _17  and  _18
REMARK    8  A    between atoms: _17  and  _20
REMARK    9  A    between atoms: _20  and  _21
REMARK   10  A    between atoms: _26  and  _28
REMARK   11  A    between atoms: _28  and  _29
REMARK   12  A    between atoms: _28  and  _31
REMARK   13  A    between atoms: _34  and  _36
REMARK   14  A    between atoms: _36  and  _37
REMARK   15  A    between atoms: _36  and  _39
REMARK   16  A    between atoms: _39  and  _40
REMARK   17  A    between atoms: _43  and  _45
REMARK   18  A    between atoms: _45  and  _46
REMARK   19  A    between atoms: _45  and  _48
REMARK   20  A    between atoms: _48  and  _49
REMARK   21  A    between atoms: _52  and  _54
REMARK   22  A    between atoms: _54  and  _55
REMARK   23  A    between atoms: _54  and  _57
REMARK   24  A    between atoms: _57  and  _58
REMARK   25  A    between atoms: _58  and  _59
REMARK   26  A    between atoms: _64  and  _66
REMARK   27  A    between atoms: _66  and  _67
REMARK   28  A    between atoms: _66  and  _69
REMARK   29  A    between atoms: _69  and  _70
REMARK   30  A    between atoms: _73  and  _75
REMARK   31  A    between atoms: _75  and  _76
REMARK   32  A    between atoms: _75  and  _78
REMARK   33  A    between atoms: _78  and  _79
REMARK   34  A    between atoms: _79  and  _80
REMARK   35  A    between atoms: _82  and  _84
REMARK   36  A    between atoms: _84  and  _85
REMARK   37  A    between atoms: _84  and  _87
REMARK   38  A    between atoms: _87  and  _88
REMARK   39  A    between atoms: _93  and  _95
REMARK   40  A    between atoms: _95  and  _96
REMARK   41  A    between atoms: _95  and  _98
REMARK   42  A    between atoms: _98  and  _99
REMARK   43  A    between atoms: _104  and  _106
REMARK   44  A    between atoms: _106  and  _107
REMARK   45  A    between atoms: _106  and  _109
REMARK   46  A    between atoms: _109  and  _110
REMARK   47  A    between atoms: _110  and  _111
REMARK   48  A    between atoms: _111  and  _112
REMARK   49  A    between atoms: _121  and  _123
REMARK   50  A    between atoms: _123  and  _124
REMARK   51  A    between atoms: _123  and  _126
REMARK   52  A    between atoms: _126  and  _127
REMARK   53  A    between atoms: _132  and  _134
REMARK   54  A    between atoms: _134  and  _135
REMARK   55  A    between atoms: _134  and  _137
REMARK   56  A    between atoms: _137  and  _138
REMARK   57  A    between atoms: _138  and  _139
REMARK   58  A    between atoms: _139  and  _141
REMARK   59  A    between atoms: _141  and  MG_450
REMARK   60  A    between atoms: _142  and  _144
REMARK   61  A    between atoms: _144  and  _145
REMARK   62  A    between atoms: _144  and  _147
REMARK   63  A    between atoms: _147  and  _148
REMARK   64  A    between atoms: _153  and  _155
REMARK   65  A    between atoms: _155  and  _156
REMARK   66  A    between atoms: _155  and  _158
REMARK   67  A    between atoms: _158  and  _159
REMARK   68  A    between atoms: _159  and  _160
REMARK   69  A    between atoms: _162  and  _164
REMARK   70  A    between atoms: _164  and  _165
REMARK   71  A    between atoms: _164  and  _167
REMARK   72  A    between atoms: _167  and  _168
REMARK   73  A    between atoms: _173  and  _175
REMARK   74  A    between atoms: _175  and  _176
REMARK   75  A    between atoms: _175  and  _178
REMARK   76  A    between atoms: _178  and  _179
REMARK   77  A    between atoms: _179  and  _180
REMARK   78  A    between atoms: _180  and  _181
REMARK   79  A    between atoms: _181  and  MG_450
REMARK   80  A    between atoms: _183  and  _185
REMARK   81  A    between atoms: _185  and  _186
REMARK   82  A    between atoms: _185  and  _188
REMARK   83  A    between atoms: _188  and  _189
REMARK   84  A    between atoms: _189  and  _190
REMARK   85  A    between atoms: _193  and  _195
REMARK   86  A    between atoms: _195  and  _196
REMARK   87  A    between atoms: _195  and  _198
REMARK   88  A    between atoms: _198  and  _199
REMARK   89  A    between atoms: _199  and  _200
REMARK   90  A    between atoms: _202  and  _204
REMARK   91  A    between atoms: _204  and  _205
REMARK   92  A    between atoms: _204  and  _207
REMARK   93  A    between atoms: _207  and  _208
REMARK   94  A    between atoms: _213  and  _214
REMARK   95  A    between atoms: _216  and  _218
REMARK   96  A    between atoms: _218  and  _219
REMARK   97  A    between atoms: _218  and  _221
REMARK   98  A    between atoms: _221  and  _222
REMARK   99  A    between atoms: _222  and  _223
REMARK  100  A    between atoms: _223  and  _224
REMARK  101  A    between atoms: _224  and  _225
REMARK  102  A    between atoms: _229  and  _231
REMARK  103  A    between atoms: _231  and  _232
REMARK  104  A    between atoms: _231  and  _234
REMARK  105  A    between atoms: _236  and  _238
REMARK  106  A    between atoms: _238  and  _239
REMARK  107  A    between atoms: _238  and  _241
REMARK  108  A    between atoms: _241  and  _242
REMARK  109  A    between atoms: _242  and  _243
REMARK  110  A    between atoms: _246  and  _248
REMARK  111  A    between atoms: _248  and  _249
REMARK  112  A    between atoms: _248  and  _251
REMARK  113  A    between atoms: _251  and  _252
REMARK  114  A    between atoms: _257  and  _259
REMARK  115  A    between atoms: _259  and  _260
REMARK  116  A    between atoms: _263  and  _265
REMARK  117  A    between atoms: _265  and  _266
REMARK  118  A    between atoms: _265  and  _268
REMARK  119  A    between atoms: _268  and  _269
REMARK  120  A    between atoms: _269  and  _270
REMARK  121  A    between atoms: _272  and  _274
REMARK  122  A    between atoms: _274  and  _275
REMARK  123  A    between atoms: _274  and  _277
REMARK  124  A    between atoms: _277  and  _278
REMARK  125  A    between atoms: _288  and  _290
REMARK  126  A    between atoms: _290  and  _291
REMARK  127  A    between atoms: _290  and  _293
REMARK  128  A    between atoms: _293  and  _294
REMARK  129  A    between atoms: _297  and  _299
REMARK  130  A    between atoms: _299  and  _300
REMARK  131  A    between atoms: _299  and  _302
REMARK  132  A    between atoms: _302  and  _303
REMARK  133  A    between atoms: _303  and  _304
REMARK  134  A    between atoms: _309  and  _311
REMARK  135  A    between atoms: _311  and  _312
REMARK  136  A    between atoms: _311  and  _314
REMARK  137  A    between atoms: _314  and  _315
REMARK  138  A    between atoms: _318  and  _320
REMARK  139  A    between atoms: _320  and  _321
REMARK  140  A    between atoms: _320  and  _323
REMARK  141  A    between atoms: _323  and  _324
REMARK  142  A    between atoms: _324  and  _325
REMARK  143  A    between atoms: _330  and  _332
REMARK  144  A    between atoms: _332  and  _333
REMARK  145  A    between atoms: _332  and  _335
REMARK  146  A    between atoms: _335  and  _336
REMARK  147  A    between atoms: _342  and  _344
REMARK  148  A    between atoms: _344  and  _345
REMARK  149  A    between atoms: _344  and  _347
REMARK  150  A    between atoms: _349  and  _351
REMARK  151  A    between atoms: _351  and  _352
REMARK  152  A    between atoms: _351  and  _354
REMARK  153  A    between atoms: _354  and  _355
REMARK  154  A    between atoms: _355  and  _356
REMARK  155  A    between atoms: _358  and  _360
REMARK  156  A    between atoms: _360  and  _361
REMARK  157  A    between atoms: _360  and  _363
REMARK  158  A    between atoms: _363  and  _364
REMARK  159  A    between atoms: _369  and  _371
REMARK  160  A    between atoms: _371  and  _372
REMARK  161  A    between atoms: _374  and  _376
REMARK  162  A    between atoms: _376  and  _377
REMARK  163  A    between atoms: _376  and  _379
REMARK  164  A    between atoms: _382  and  _384
REMARK  165  A    between atoms: _384  and  _385
REMARK  166  A    between atoms: _384  and  _387
REMARK  167  A    between atoms: _387  and  _388
REMARK  168  A    between atoms: _391  and  _393
REMARK  169  A    between atoms: _393  and  _394
REMARK  170  A    between atoms: _393  and  _396
REMARK  171  A    between atoms: _396  and  _397
REMARK  172  A    between atoms: _399  and  _401
REMARK  173  A    between atoms: _401  and  _402
REMARK  174  A    between atoms: _401  and  _404
REMARK  175  A    between atoms: _404  and  _405
REMARK  176  A    between atoms: _415  and  _417
REMARK  177  A    between atoms: _417  and  _418
REMARK  178  A    between atoms: _417  and  _420
REMARK  179  A    between atoms: _420  and  _421
REMARK  180  A    between atoms: _423  and  _425
REMARK  181  A    between atoms: _425  and  _426
REMARK  182  A    between atoms: _425  and  _428
REMARK  183  A    between atoms: _428  and  _429
REMARK  184  A    between atoms: _429  and  _430
REMARK  185  A    between atoms: _433  and  _435
REMARK  186  A    between atoms: _435  and  _436
REMARK  187  A    between atoms: _435  and  _438
REMARK  188  A    between atoms: _438  and  _439
REMARK  189  A    between atoms: _439  and  _440
REMARK  190  A    between atoms: _440  and  _441
REMARK                            x       y       z     vdW  Elec       q    Type
REMARK                         _______ _______ _______ _____ _____    ______ ____
ROOT
ATOM      1  O   HOH     1      21.485  35.590  74.886  0.00  0.00    +0.000 OA
ENDROOT
TORSDOF 0
REMARK  Name = ../refined-set-2016/3muz/3muz_pocket.pdb
REMARK  190 active torsions:
REMARK  status: ('A' for Active; 'I' for Inactive)
REMARK    1  A    between atoms: _1  and  _3
REMARK    2  A    between atoms: _3  and  _4
REMARK    3  A    between atoms: _3  and  _6
REMARK    4  A    between atoms: _6  and  _7
REMARK    5  A    between atoms: _12  and  _13
REMARK    6  A    between atoms: _15  and  _17
REMARK    7  A    between atoms: _17  and  _18
REMARK    8  A    between atoms: _17  and  _20
REMARK    9  A    between atoms: _20  and  _21
REMARK   10  A    between atoms: _26  and  _28
REMARK   11  A    between atoms: _28  and  _29
REMARK   12  A    between atoms: _28  and  _31
REMARK   13  A    between atoms: _34  and  _36
REMARK   14  A    between atoms: _36  and  _37
REMARK   15  A    between atoms: _36  and  _39
REMARK   16  A    between atoms: _39  and  _40
REMARK   17  A    between atoms: _43  and  _45
REMARK   18  A    between atoms: _45  and  _46
REMARK   19  A    between atoms: _45  and  _48
REMARK   20  A    between atoms: _48  and  _49
REMARK   21  A    between atoms: _52  and  _54
REMARK   22  A    between atoms: _54  and  _55
REMARK   23  A    between atoms: _54  and  _57
REMARK   24  A    between atoms: _57  and  _58
REMARK   25  A    between atoms: _58  and  _59
REMARK   26  A    between atoms: _64  and  _66
REMARK   27  A    between atoms: _66  and  _67
REMARK   28  A    between atoms: _66  and  _69
REMARK   29  A    between atoms: _69  and  _70
REMARK   30  A    between atoms: _73  and  _75
REMARK   31  A    between atoms: _75  and  _76
REMARK   32  A    between atoms: _75  and  _78
REMARK   33  A    between atoms: _78  and  _79
REMARK   34  A    between atoms: _79  and  _80
REMARK   35  A    between atoms: _82  and  _84
REMARK   36  A    between atoms: _84  and  _85
REMARK   37  A    between atoms: _84  and  _87
REMARK   38  A    between atoms: _87  and  _88
REMARK   39  A    between atoms: _93  and  _95
REMARK   40  A    between atoms: _95  and  _96
REMARK   41  A    between atoms: _95  and  _98
REMARK   42  A    between atoms: _98  and  _99
REMARK   43  A    between atoms: _104  and  _106
REMARK   44  A    between atoms: _106  and  _107
REMARK   45  A    between atoms: _106  and  _109
REMARK   46  A    between atoms: _109  and  _110
REMARK   47  A    between atoms: _110  and  _111
REMARK   48  A    between atoms: _111  and  _112
REMARK   49  A    between atoms: _121  and  _123
REMARK   50  A    between atoms: _123  and  _124
REMARK   51  A    between atoms: _123  and  _126
REMARK   52  A    between atoms: _126  and  _127
REMARK   53  A    between atoms: _132  and  _134
REMARK   54  A    between atoms: _134  and  _135
REMARK   55  A    between atoms: _134  and  _137
REMARK   56  A    between atoms: _137  and  _138
REMARK   57  A    between atoms: _138  and  _139
REMARK   58  A    between atoms: _139  and  _141
REMARK   59  A    between atoms: _141  and  MG_450
REMARK   60  A    between atoms: _142  and  _144
REMARK   61  A    between atoms: _144  and  _145
REMARK   62  A    between atoms: _144  and  _147
REMARK   63  A    between atoms: _147  and  _148
REMARK   64  A    between atoms: _153  and  _155
REMARK   65  A    between atoms: _155  and  _156
REMARK   66  A    between atoms: _155  and  _158
REMARK   67  A    between atoms: _158  and  _159
REMARK   68  A    between atoms: _159  and  _160
REMARK   69  A    between atoms: _162  and  _164
REMARK   70  A    between atoms: _164  and  _165
REMARK   71  A    between atoms: _164  and  _167
REMARK   72  A    between atoms: _167  and  _168
REMARK   73  A    between atoms: _173  and  _175
REMARK   74  A    between atoms: _175  and  _176
REMARK   75  A    between atoms: _175  and  _178
REMARK   76  A    between atoms: _178  and  _179
REMARK   77  A    between atoms: _179  and  _180
REMARK   78  A    between atoms: _180  and  _181
REMARK   79  A    between atoms: _181  and  MG_450
REMARK   80  A    between atoms: _183  and  _185
REMARK   81  A    between atoms: _185  and  _186
REMARK   82  A    between atoms: _185  and  _188
REMARK   83  A    between atoms: _188  and  _189
REMARK   84  A    between atoms: _189  and  _190
REMARK   85  A    between atoms: _193  and  _195
REMARK   86  A    between atoms: _195  and  _196
REMARK   87  A    between atoms: _195  and  _198
REMARK   88  A    between atoms: _198  and  _199
REMARK   89  A    between atoms: _199  and  _200
REMARK   90  A    between atoms: _202  and  _204
REMARK   91  A    between atoms: _204  and  _205
REMARK   92  A    between atoms: _204  and  _207
REMARK   93  A    between atoms: _207  and  _208
REMARK   94  A    between atoms: _213  and  _214
REMARK   95  A    between atoms: _216  and  _218
REMARK   96  A    between atoms: _218  and  _219
REMARK   97  A    between atoms: _218  and  _221
REMARK   98  A    between atoms: _221  and  _222
REMARK   99  A    between atoms: _222  and  _223
REMARK  100  A    between atoms: _223  and  _224
REMARK  101  A    between atoms: _224  and  _225
REMARK  102  A    between atoms: _229  and  _231
REMARK  103  A    between atoms: _231  and  _232
REMARK  104  A    between atoms: _231  and  _234
REMARK  105  A    between atoms: _236  and  _238
REMARK  106  A    between atoms: _238  and  _239
REMARK  107  A    between atoms: _238  and  _241
REMARK  108  A    between atoms: _241  and  _242
REMARK  109  A    between atoms: _242  and  _243
REMARK  110  A    between atoms: _246  and  _248
REMARK  111  A    between atoms: _248  and  _249
REMARK  112  A    between atoms: _248  and  _251
REMARK  113  A    between atoms: _251  and  _252
REMARK  114  A    between atoms: _257  and  _259
REMARK  115  A    between atoms: _259  and  _260
REMARK  116  A    between atoms: _263  and  _265
REMARK  117  A    between atoms: _265  and  _266
REMARK  118  A    between atoms: _265  and  _268
REMARK  119  A    between atoms: _268  and  _269
REMARK  120  A    between atoms: _269  and  _270
REMARK  121  A    between atoms: _272  and  _274
REMARK  122  A    between atoms: _274  and  _275
REMARK  123  A    between atoms: _274  and  _277
REMARK  124  A    between atoms: _277  and  _278
REMARK  125  A    between atoms: _288  and  _290
REMARK  126  A    between atoms: _290  and  _291
REMARK  127  A    between atoms: _290  and  _293
REMARK  128  A    between atoms: _293  and  _294
REMARK  129  A    between atoms: _297  and  _299
REMARK  130  A    between atoms: _299  and  _300
REMARK  131  A    between atoms: _299  and  _302
REMARK  132  A    between atoms: _302  and  _303
REMARK  133  A    between atoms: _303  and  _304
REMARK  134  A    between atoms: _309  and  _311
REMARK  135  A    between atoms: _311  and  _312
REMARK  136  A    between atoms: _311  and  _314
REMARK  137  A    between atoms: _314  and  _315
REMARK  138  A    between atoms: _318  and  _320
REMARK  139  A    between atoms: _320  and  _321
REMARK  140  A    between atoms: _320  and  _323
REMARK  141  A    between atoms: _323  and  _324
REMARK  142  A    between atoms: _324  and  _325
REMARK  143  A    between atoms: _330  and  _332
REMARK  144  A    between atoms: _332  and  _333
REMARK  145  A    between atoms: _332  and  _335
REMARK  146  A    between atoms: _335  and  _336
REMARK  147  A    between atoms: _342  and  _344
REMARK  148  A    between atoms: _344  and  _345
REMARK  149  A    between atoms: _344  and  _347
REMARK  150  A    between atoms: _349  and  _351
REMARK  151  A    between atoms: _351  and  _352
REMARK  152  A    between atoms: _351  and  _354
REMARK  153  A    between atoms: _354  and  _355
REMARK  154  A    between atoms: _355  and  _356
REMARK  155  A    between atoms: _358  and  _360
REMARK  156  A    between atoms: _360  and  _361
REMARK  157  A    between atoms: _360  and  _363
REMARK  158  A    between atoms: _363  and  _364
REMARK  159  A    between atoms: _369  and  _371
REMARK  160  A    between atoms: _371  and  _372
REMARK  161  A    between atoms: _374  and  _376
REMARK  162  A    between atoms: _376  and  _377
REMARK  163  A    between atoms: _376  and  _379
REMARK  164  A    between atoms: _382  and  _384
REMARK  165  A    between atoms: _384  and  _385
REMARK  166  A    between atoms: _384  and  _387
REMARK  167  A    between atoms: _387  and  _388
REMARK  168  A    between atoms: _391  and  _393
REMARK  169  A    between atoms: _393  and  _394
REMARK  170  A    between atoms: _393  and  _396
REMARK  171  A    between atoms: _396  and  _397
REMARK  172  A    between atoms: _399  and  _401
REMARK  173  A    between atoms: _401  and  _402
REMARK  174  A    between atoms: _401  and  _404
REMARK  175  A    between atoms: _404  and  _405
REMARK  176  A    between atoms: _415  and  _417
REMARK  177  A    between atoms: _417  and  _418
REMARK  178  A    between atoms: _417  and  _420
REMARK  179  A    between atoms: _420  and  _421
REMARK  180  A    between atoms: _423  and  _425
REMARK  181  A    between atoms: _425  and  _426
REMARK  182  A    between atoms: _425  and  _428
REMARK  183  A    between atoms: _428  and  _429
REMARK  184  A    between atoms: _429  and  _430
REMARK  185  A    between atoms: _433  and  _435
REMARK  186  A    between atoms: _435  and  _436
REMARK  187  A    between atoms: _435  and  _438
REMARK  188  A    between atoms: _438  and  _439
REMARK  189  A    between atoms: _439  and  _440
REMARK  190  A    between atoms: _440  and  _441
REMARK                            x       y       z     vdW  Elec       q    Type
REMARK                         _______ _______ _______ _____ _____    ______ ____
ROOT
ATOM      1  O   HOH     1      19.727  32.211  75.961  0.00  0.00    +0.000 OA
ENDROOT
TORSDOF 0
REMARK  Name = ../refined-set-2016/3muz/3muz_pocket.pdb
REMARK  190 active torsions:
REMARK  status: ('A' for Active; 'I' for Inactive)
REMARK    1  A    between atoms: _1  and  _3
REMARK    2  A    between atoms: _3  and  _4
REMARK    3  A    between atoms: _3  and  _6
REMARK    4  A    between atoms: _6  and  _7
REMARK    5  A    between atoms: _12  and  _13
REMARK    6  A    between atoms: _15  and  _17
REMARK    7  A    between atoms: _17  and  _18
REMARK    8  A    between atoms: _17  and  _20
REMARK    9  A    between atoms: _20  and  _21
REMARK   10  A    between atoms: _26  and  _28
REMARK   11  A    between atoms: _28  and  _29
REMARK   12  A    between atoms: _28  and  _31
REMARK   13  A    between atoms: _34  and  _36
REMARK   14  A    between atoms: _36  and  _37
REMARK   15  A    between atoms: _36  and  _39
REMARK   16  A    between atoms: _39  and  _40
REMARK   17  A    between atoms: _43  and  _45
REMARK   18  A    between atoms: _45  and  _46
REMARK   19  A    between atoms: _45  and  _48
REMARK   20  A    between atoms: _48  and  _49
REMARK   21  A    between atoms: _52  and  _54
REMARK   22  A    between atoms: _54  and  _55
REMARK   23  A    between atoms: _54  and  _57
REMARK   24  A    between atoms: _57  and  _58
REMARK   25  A    between atoms: _58  and  _59
REMARK   26  A    between atoms: _64  and  _66
REMARK   27  A    between atoms: _66  and  _67
REMARK   28  A    between atoms: _66  and  _69
REMARK   29  A    between atoms: _69  and  _70
REMARK   30  A    between atoms: _73  and  _75
REMARK   31  A    between atoms: _75  and  _76
REMARK   32  A    between atoms: _75  and  _78
REMARK   33  A    between atoms: _78  and  _79
REMARK   34  A    between atoms: _79  and  _80
REMARK   35  A    between atoms: _82  and  _84
REMARK   36  A    between atoms: _84  and  _85
REMARK   37  A    between atoms: _84  and  _87
REMARK   38  A    between atoms: _87  and  _88
REMARK   39  A    between atoms: _93  and  _95
REMARK   40  A    between atoms: _95  and  _96
REMARK   41  A    between atoms: _95  and  _98
REMARK   42  A    between atoms: _98  and  _99
REMARK   43  A    between atoms: _104  and  _106
REMARK   44  A    between atoms: _106  and  _107
REMARK   45  A    between atoms: _106  and  _109
REMARK   46  A    between atoms: _109  and  _110
REMARK   47  A    between atoms: _110  and  _111
REMARK   48  A    between atoms: _111  and  _112
REMARK   49  A    between atoms: _121  and  _123
REMARK   50  A    between atoms: _123  and  _124
REMARK   51  A    between atoms: _123  and  _126
REMARK   52  A    between atoms: _126  and  _127
REMARK   53  A    between atoms: _132  and  _134
REMARK   54  A    between atoms: _134  and  _135
REMARK   55  A    between atoms: _134  and  _137
REMARK   56  A    between atoms: _137  and  _138
REMARK   57  A    between atoms: _138  and  _139
REMARK   58  A    between atoms: _139  and  _141
REMARK   59  A    between atoms: _141  and  MG_450
REMARK   60  A    between atoms: _142  and  _144
REMARK   61  A    between atoms: _144  and  _145
REMARK   62  A    between atoms: _144  and  _147
REMARK   63  A    between atoms: _147  and  _148
REMARK   64  A    between atoms: _153  and  _155
REMARK   65  A    between atoms: _155  and  _156
REMARK   66  A    between atoms: _155  and  _158
REMARK   67  A    between atoms: _158  and  _159
REMARK   68  A    between atoms: _159  and  _160
REMARK   69  A    between atoms: _162  and  _164
REMARK   70  A    between atoms: _164  and  _165
REMARK   71  A    between atoms: _164  and  _167
REMARK   72  A    between atoms: _167  and  _168
REMARK   73  A    between atoms: _173  and  _175
REMARK   74  A    between atoms: _175  and  _176
REMARK   75  A    between atoms: _175  and  _178
REMARK   76  A    between atoms: _178  and  _179
REMARK   77  A    between atoms: _179  and  _180
REMARK   78  A    between atoms: _180  and  _181
REMARK   79  A    between atoms: _181  and  MG_450
REMARK   80  A    between atoms: _183  and  _185
REMARK   81  A    between atoms: _185  and  _186
REMARK   82  A    between atoms: _185  and  _188
REMARK   83  A    between atoms: _188  and  _189
REMARK   84  A    between atoms: _189  and  _190
REMARK   85  A    between atoms: _193  and  _195
REMARK   86  A    between atoms: _195  and  _196
REMARK   87  A    between atoms: _195  and  _198
REMARK   88  A    between atoms: _198  and  _199
REMARK   89  A    between atoms: _199  and  _200
REMARK   90  A    between atoms: _202  and  _204
REMARK   91  A    between atoms: _204  and  _205
REMARK   92  A    between atoms: _204  and  _207
REMARK   93  A    between atoms: _207  and  _208
REMARK   94  A    between atoms: _213  and  _214
REMARK   95  A    between atoms: _216  and  _218
REMARK   96  A    between atoms: _218  and  _219
REMARK   97  A    between atoms: _218  and  _221
REMARK   98  A    between atoms: _221  and  _222
REMARK   99  A    between atoms: _222  and  _223
REMARK  100  A    between atoms: _223  and  _224
REMARK  101  A    between atoms: _224  and  _225
REMARK  102  A    between atoms: _229  and  _231
REMARK  103  A    between atoms: _231  and  _232
REMARK  104  A    between atoms: _231  and  _234
REMARK  105  A    between atoms: _236  and  _238
REMARK  106  A    between atoms: _238  and  _239
REMARK  107  A    between atoms: _238  and  _241
REMARK  108  A    between atoms: _241  and  _242
REMARK  109  A    between atoms: _242  and  _243
REMARK  110  A    between atoms: _246  and  _248
REMARK  111  A    between atoms: _248  and  _249
REMARK  112  A    between atoms: _248  and  _251
REMARK  113  A    between atoms: _251  and  _252
REMARK  114  A    between atoms: _257  and  _259
REMARK  115  A    between atoms: _259  and  _260
REMARK  116  A    between atoms: _263  and  _265
REMARK  117  A    between atoms: _265  and  _266
REMARK  118  A    between atoms: _265  and  _268
REMARK  119  A    between atoms: _268  and  _269
REMARK  120  A    between atoms: _269  and  _270
REMARK  121  A    between atoms: _272  and  _274
REMARK  122  A    between atoms: _274  and  _275
REMARK  123  A    between atoms: _274  and  _277
REMARK  124  A    between atoms: _277  and  _278
REMARK  125  A    between atoms: _288  and  _290
REMARK  126  A    between atoms: _290  and  _291
REMARK  127  A    between atoms: _290  and  _293
REMARK  128  A    between atoms: _293  and  _294
REMARK  129  A    between atoms: _297  and  _299
REMARK  130  A    between atoms: _299  and  _300
REMARK  131  A    between atoms: _299  and  _302
REMARK  132  A    between atoms: _302  and  _303
REMARK  133  A    between atoms: _303  and  _304
REMARK  134  A    between atoms: _309  and  _311
REMARK  135  A    between atoms: _311  and  _312
REMARK  136  A    between atoms: _311  and  _314
REMARK  137  A    between atoms: _314  and  _315
REMARK  138  A    between atoms: _318  and  _320
REMARK  139  A    between atoms: _320  and  _321
REMARK  140  A    between atoms: _320  and  _323
REMARK  141  A    between atoms: _323  and  _324
REMARK  142  A    between atoms: _324  and  _325
REMARK  143  A    between atoms: _330  and  _332
REMARK  144  A    between atoms: _332  and  _333
REMARK  145  A    between atoms: _332  and  _335
REMARK  146  A    between atoms: _335  and  _336
REMARK  147  A    between atoms: _342  and  _344
REMARK  148  A    between atoms: _344  and  _345
REMARK  149  A    between atoms: _344  and  _347
REMARK  150  A    between atoms: _349  and  _351
REMARK  151  A    between atoms: _351  and  _352
REMARK  152  A    between atoms: _351  and  _354
REMARK  153  A    between atoms: _354  and  _355
REMARK  154  A    between atoms: _355  and  _356
REMARK  155  A    between atoms: _358  and  _360
REMARK  156  A    between atoms: _360  and  _361
REMARK  157  A    between atoms: _360  and  _363
REMARK  158  A    between atoms: _363  and  _364
REMARK  159  A    between atoms: _369  and  _371
REMARK  160  A    between atoms: _371  and  _372
REMARK  161  A    between atoms: _374  and  _376
REMARK  162  A    between atoms: _376  and  _377
REMARK  163  A    between atoms: _376  and  _379
REMARK  164  A    between atoms: _382  and  _384
REMARK  165  A    between atoms: _384  and  _385
REMARK  166  A    between atoms: _384  and  _387
REMARK  167  A    between atoms: _387  and  _388
REMARK  168  A    between atoms: _391  and  _393
REMARK  169  A    between atoms: _393  and  _394
REMARK  170  A    between atoms: _393  and  _396
REMARK  171  A    between atoms: _396  and  _397
REMARK  172  A    between atoms: _399  and  _401
REMARK  173  A    between atoms: _401  and  _402
REMARK  174  A    between atoms: _401  and  _404
REMARK  175  A    between atoms: _404  and  _405
REMARK  176  A    between atoms: _415  and  _417
REMARK  177  A    between atoms: _417  and  _418
REMARK  178  A    between atoms: _417  and  _420
REMARK  179  A    between atoms: _420  and  _421
REMARK  180  A    between atoms: _423  and  _425
REMARK  181  A    between atoms: _425  and  _426
REMARK  182  A    between atoms: _425  and  _428
REMARK  183  A    between atoms: _428  and  _429
REMARK  184  A    between atoms: _429  and  _430
REMARK  185  A    between atoms: _433  and  _435
REMARK  186  A    between atoms: _435  and  _436
REMARK  187  A    between atoms: _435  and  _438
REMARK  188  A    between atoms: _438  and  _439
REMARK  189  A    between atoms: _439  and  _440
REMARK  190  A    between atoms: _440  and  _441
REMARK                            x       y       z     vdW  Elec       q    Type
REMARK                         _______ _______ _______ _____ _____    ______ ____
ROOT
ATOM      1  O   HOH     1       9.048  29.365  76.227  0.00  0.00    +0.000 OA
ENDROOT
TORSDOF 0
REMARK  Name = ../refined-set-2016/3muz/3muz_pocket.pdb
REMARK  190 active torsions:
REMARK  status: ('A' for Active; 'I' for Inactive)
REMARK    1  A    between atoms: _1  and  _3
REMARK    2  A    between atoms: _3  and  _4
REMARK    3  A    between atoms: _3  and  _6
REMARK    4  A    between atoms: _6  and  _7
REMARK    5  A    between atoms: _12  and  _13
REMARK    6  A    between atoms: _15  and  _17
REMARK    7  A    between atoms: _17  and  _18
REMARK    8  A    between atoms: _17  and  _20
REMARK    9  A    between atoms: _20  and  _21
REMARK   10  A    between atoms: _26  and  _28
REMARK   11  A    between atoms: _28  and  _29
REMARK   12  A    between atoms: _28  and  _31
REMARK   13  A    between atoms: _34  and  _36
REMARK   14  A    between atoms: _36  and  _37
REMARK   15  A    between atoms: _36  and  _39
REMARK   16  A    between atoms: _39  and  _40
REMARK   17  A    between atoms: _43  and  _45
REMARK   18  A    between atoms: _45  and  _46
REMARK   19  A    between atoms: _45  and  _48
REMARK   20  A    between atoms: _48  and  _49
REMARK   21  A    between atoms: _52  and  _54
REMARK   22  A    between atoms: _54  and  _55
REMARK   23  A    between atoms: _54  and  _57
REMARK   24  A    between atoms: _57  and  _58
REMARK   25  A    between atoms: _58  and  _59
REMARK   26  A    between atoms: _64  and  _66
REMARK   27  A    between atoms: _66  and  _67
REMARK   28  A    between atoms: _66  and  _69
REMARK   29  A    between atoms: _69  and  _70
REMARK   30  A    between atoms: _73  and  _75
REMARK   31  A    between atoms: _75  and  _76
REMARK   32  A    between atoms: _75  and  _78
REMARK   33  A    between atoms: _78  and  _79
REMARK   34  A    between atoms: _79  and  _80
REMARK   35  A    between atoms: _82  and  _84
REMARK   36  A    between atoms: _84  and  _85
REMARK   37  A    between atoms: _84  and  _87
REMARK   38  A    between atoms: _87  and  _88
REMARK   39  A    between atoms: _93  and  _95
REMARK   40  A    between atoms: _95  and  _96
REMARK   41  A    between atoms: _95  and  _98
REMARK   42  A    between atoms: _98  and  _99
REMARK   43  A    between atoms: _104  and  _106
REMARK   44  A    between atoms: _106  and  _107
REMARK   45  A    between atoms: _106  and  _109
REMARK   46  A    between atoms: _109  and  _110
REMARK   47  A    between atoms: _110  and  _111
REMARK   48  A    between atoms: _111  and  _112
REMARK   49  A    between atoms: _121  and  _123
REMARK   50  A    between atoms: _123  and  _124
REMARK   51  A    between atoms: _123  and  _126
REMARK   52  A    between atoms: _126  and  _127
REMARK   53  A    between atoms: _132  and  _134
REMARK   54  A    between atoms: _134  and  _135
REMARK   55  A    between atoms: _134  and  _137
REMARK   56  A    between atoms: _137  and  _138
REMARK   57  A    between atoms: _138  and  _139
REMARK   58  A    between atoms: _139  and  _141
REMARK   59  A    between atoms: _141  and  MG_450
REMARK   60  A    between atoms: _142  and  _144
REMARK   61  A    between atoms: _144  and  _145
REMARK   62  A    between atoms: _144  and  _147
REMARK   63  A    between atoms: _147  and  _148
REMARK   64  A    between atoms: _153  and  _155
REMARK   65  A    between atoms: _155  and  _156
REMARK   66  A    between atoms: _155  and  _158
REMARK   67  A    between atoms: _158  and  _159
REMARK   68  A    between atoms: _159  and  _160
REMARK   69  A    between atoms: _162  and  _164
REMARK   70  A    between atoms: _164  and  _165
REMARK   71  A    between atoms: _164  and  _167
REMARK   72  A    between atoms: _167  and  _168
REMARK   73  A    between atoms: _173  and  _175
REMARK   74  A    between atoms: _175  and  _176
REMARK   75  A    between atoms: _175  and  _178
REMARK   76  A    between atoms: _178  and  _179
REMARK   77  A    between atoms: _179  and  _180
REMARK   78  A    between atoms: _180  and  _181
REMARK   79  A    between atoms: _181  and  MG_450
REMARK   80  A    between atoms: _183  and  _185
REMARK   81  A    between atoms: _185  and  _186
REMARK   82  A    between atoms: _185  and  _188
REMARK   83  A    between atoms: _188  and  _189
REMARK   84  A    between atoms: _189  and  _190
REMARK   85  A    between atoms: _193  and  _195
REMARK   86  A    between atoms: _195  and  _196
REMARK   87  A    between atoms: _195  and  _198
REMARK   88  A    between atoms: _198  and  _199
REMARK   89  A    between atoms: _199  and  _200
REMARK   90  A    between atoms: _202  and  _204
REMARK   91  A    between atoms: _204  and  _205
REMARK   92  A    between atoms: _204  and  _207
REMARK   93  A    between atoms: _207  and  _208
REMARK   94  A    between atoms: _213  and  _214
REMARK   95  A    between atoms: _216  and  _218
REMARK   96  A    between atoms: _218  and  _219
REMARK   97  A    between atoms: _218  and  _221
REMARK   98  A    between atoms: _221  and  _222
REMARK   99  A    between atoms: _222  and  _223
REMARK  100  A    between atoms: _223  and  _224
REMARK  101  A    between atoms: _224  and  _225
REMARK  102  A    between atoms: _229  and  _231
REMARK  103  A    between atoms: _231  and  _232
REMARK  104  A    between atoms: _231  and  _234
REMARK  105  A    between atoms: _236  and  _238
REMARK  106  A    between atoms: _238  and  _239
REMARK  107  A    between atoms: _238  and  _241
REMARK  108  A    between atoms: _241  and  _242
REMARK  109  A    between atoms: _242  and  _243
REMARK  110  A    between atoms: _246  and  _248
REMARK  111  A    between atoms: _248  and  _249
REMARK  112  A    between atoms: _248  and  _251
REMARK  113  A    between atoms: _251  and  _252
REMARK  114  A    between atoms: _257  and  _259
REMARK  115  A    between atoms: _259  and  _260
REMARK  116  A    between atoms: _263  and  _265
REMARK  117  A    between atoms: _265  and  _266
REMARK  118  A    between atoms: _265  and  _268
REMARK  119  A    between atoms: _268  and  _269
REMARK  120  A    between atoms: _269  and  _270
REMARK  121  A    between atoms: _272  and  _274
REMARK  122  A    between atoms: _274  and  _275
REMARK  123  A    between atoms: _274  and  _277
REMARK  124  A    between atoms: _277  and  _278
REMARK  125  A    between atoms: _288  and  _290
REMARK  126  A    between atoms: _290  and  _291
REMARK  127  A    between atoms: _290  and  _293
REMARK  128  A    between atoms: _293  and  _294
REMARK  129  A    between atoms: _297  and  _299
REMARK  130  A    between atoms: _299  and  _300
REMARK  131  A    between atoms: _299  and  _302
REMARK  132  A    between atoms: _302  and  _303
REMARK  133  A    between atoms: _303  and  _304
REMARK  134  A    between atoms: _309  and  _311
REMARK  135  A    between atoms: _311  and  _312
REMARK  136  A    between atoms: _311  and  _314
REMARK  137  A    between atoms: _314  and  _315
REMARK  138  A    between atoms: _318  and  _320
REMARK  139  A    between atoms: _320  and  _321
REMARK  140  A    between atoms: _320  and  _323
REMARK  141  A    between atoms: _323  and  _324
REMARK  142  A    between atoms: _324  and  _325
REMARK  143  A    between atoms: _330  and  _332
REMARK  144  A    between atoms: _332  and  _333
REMARK  145  A    between atoms: _332  and  _335
REMARK  146  A    between atoms: _335  and  _336
REMARK  147  A    between atoms: _342  and  _344
REMARK  148  A    between atoms: _344  and  _345
REMARK  149  A    between atoms: _344  and  _347
REMARK  150  A    between atoms: _349  and  _351
REMARK  151  A    between atoms: _351  and  _352
REMARK  152  A    between atoms: _351  and  _354
REMARK  153  A    between atoms: _354  and  _355
REMARK  154  A    between atoms: _355  and  _356
REMARK  155  A    between atoms: _358  and  _360
REMARK  156  A    between atoms: _360  and  _361
REMARK  157  A    between atoms: _360  and  _363
REMARK  158  A    between atoms: _363  and  _364
REMARK  159  A    between atoms: _369  and  _371
REMARK  160  A    between atoms: _371  and  _372
REMARK  161  A    between atoms: _374  and  _376
REMARK  162  A    between atoms: _376  and  _377
REMARK  163  A    between atoms: _376  and  _379
REMARK  164  A    between atoms: _382  and  _384
REMARK  165  A    between atoms: _384  and  _385
REMARK  166  A    between atoms: _384  and  _387
REMARK  167  A    between atoms: _387  and  _388
REMARK  168  A    between atoms: _391  and  _393
REMARK  169  A    between atoms: _393  and  _394
REMARK  170  A    between atoms: _393  and  _396
REMARK  171  A    between atoms: _396  and  _397
REMARK  172  A    between atoms: _399  and  _401
REMARK  173  A    between atoms: _401  and  _402
REMARK  174  A    between atoms: _401  and  _404
REMARK  175  A    between atoms: _404  and  _405
REMARK  176  A    between atoms: _415  and  _417
REMARK  177  A    between atoms: _417  and  _418
REMARK  178  A    between atoms: _417  and  _420
REMARK  179  A    between atoms: _420  and  _421
REMARK  180  A    between atoms: _423  and  _425
REMARK  181  A    between atoms: _425  and  _426
REMARK  182  A    between atoms: _425  and  _428
REMARK  183  A    between atoms: _428  and  _429
REMARK  184  A    between atoms: _429  and  _430
REMARK  185  A    between atoms: _433  and  _435
REMARK  186  A    between atoms: _435  and  _436
REMARK  187  A    between atoms: _435  and  _438
REMARK  188  A    between atoms: _438  and  _439
REMARK  189  A    between atoms: _439  and  _440
REMARK  190  A    between atoms: _440  and  _441
REMARK                            x       y       z     vdW  Elec       q    Type
REMARK                         _______ _______ _______ _____ _____    ______ ____
ROOT
ATOM      1  O   HOH     1       9.377  27.297  78.463  0.00  0.00    +0.000 OA
ENDROOT
TORSDOF 0
REMARK  Name = ../refined-set-2016/3muz/3muz_pocket.pdb
REMARK  190 active torsions:
REMARK  status: ('A' for Active; 'I' for Inactive)
REMARK    1  A    between atoms: _1  and  _3
REMARK    2  A    between atoms: _3  and  _4
REMARK    3  A    between atoms: _3  and  _6
REMARK    4  A    between atoms: _6  and  _7
REMARK    5  A    between atoms: _12  and  _13
REMARK    6  A    between atoms: _15  and  _17
REMARK    7  A    between atoms: _17  and  _18
REMARK    8  A    between atoms: _17  and  _20
REMARK    9  A    between atoms: _20  and  _21
REMARK   10  A    between atoms: _26  and  _28
REMARK   11  A    between atoms: _28  and  _29
REMARK   12  A    between atoms: _28  and  _31
REMARK   13  A    between atoms: _34  and  _36
REMARK   14  A    between atoms: _36  and  _37
REMARK   15  A    between atoms: _36  and  _39
REMARK   16  A    between atoms: _39  and  _40
REMARK   17  A    between atoms: _43  and  _45
REMARK   18  A    between atoms: _45  and  _46
REMARK   19  A    between atoms: _45  and  _48
REMARK   20  A    between atoms: _48  and  _49
REMARK   21  A    between atoms: _52  and  _54
REMARK   22  A    between atoms: _54  and  _55
REMARK   23  A    between atoms: _54  and  _57
REMARK   24  A    between atoms: _57  and  _58
REMARK   25  A    between atoms: _58  and  _59
REMARK   26  A    between atoms: _64  and  _66
REMARK   27  A    between atoms: _66  and  _67
REMARK   28  A    between atoms: _66  and  _69
REMARK   29  A    between atoms: _69  and  _70
REMARK   30  A    between atoms: _73  and  _75
REMARK   31  A    between atoms: _75  and  _76
REMARK   32  A    between atoms: _75  and  _78
REMARK   33  A    between atoms: _78  and  _79
REMARK   34  A    between atoms: _79  and  _80
REMARK   35  A    between atoms: _82  and  _84
REMARK   36  A    between atoms: _84  and  _85
REMARK   37  A    between atoms: _84  and  _87
REMARK   38  A    between atoms: _87  and  _88
REMARK   39  A    between atoms: _93  and  _95
REMARK   40  A    between atoms: _95  and  _96
REMARK   41  A    between atoms: _95  and  _98
REMARK   42  A    between atoms: _98  and  _99
REMARK   43  A    between atoms: _104  and  _106
REMARK   44  A    between atoms: _106  and  _107
REMARK   45  A    between atoms: _106  and  _109
REMARK   46  A    between atoms: _109  and  _110
REMARK   47  A    between atoms: _110  and  _111
REMARK   48  A    between atoms: _111  and  _112
REMARK   49  A    between atoms: _121  and  _123
REMARK   50  A    between atoms: _123  and  _124
REMARK   51  A    between atoms: _123  and  _126
REMARK   52  A    between atoms: _126  and  _127
REMARK   53  A    between atoms: _132  and  _134
REMARK   54  A    between atoms: _134  and  _135
REMARK   55  A    between atoms: _134  and  _137
REMARK   56  A    between atoms: _137  and  _138
REMARK   57  A    between atoms: _138  and  _139
REMARK   58  A    between atoms: _139  and  _141
REMARK   59  A    between atoms: _141  and  MG_450
REMARK   60  A    between atoms: _142  and  _144
REMARK   61  A    between atoms: _144  and  _145
REMARK   62  A    between atoms: _144  and  _147
REMARK   63  A    between atoms: _147  and  _148
REMARK   64  A    between atoms: _153  and  _155
REMARK   65  A    between atoms: _155  and  _156
REMARK   66  A    between atoms: _155  and  _158
REMARK   67  A    between atoms: _158  and  _159
REMARK   68  A    between atoms: _159  and  _160
REMARK   69  A    between atoms: _162  and  _164
REMARK   70  A    between atoms: _164  and  _165
REMARK   71  A    between atoms: _164  and  _167
REMARK   72  A    between atoms: _167  and  _168
REMARK   73  A    between atoms: _173  and  _175
REMARK   74  A    between atoms: _175  and  _176
REMARK   75  A    between atoms: _175  and  _178
REMARK   76  A    between atoms: _178  and  _179
REMARK   77  A    between atoms: _179  and  _180
REMARK   78  A    between atoms: _180  and  _181
REMARK   79  A    between atoms: _181  and  MG_450
REMARK   80  A    between atoms: _183  and  _185
REMARK   81  A    between atoms: _185  and  _186
REMARK   82  A    between atoms: _185  and  _188
REMARK   83  A    between atoms: _188  and  _189
REMARK   84  A    between atoms: _189  and  _190
REMARK   85  A    between atoms: _193  and  _195
REMARK   86  A    between atoms: _195  and  _196
REMARK   87  A    between atoms: _195  and  _198
REMARK   88  A    between atoms: _198  and  _199
REMARK   89  A    between atoms: _199  and  _200
REMARK   90  A    between atoms: _202  and  _204
REMARK   91  A    between atoms: _204  and  _205
REMARK   92  A    between atoms: _204  and  _207
REMARK   93  A    between atoms: _207  and  _208
REMARK   94  A    between atoms: _213  and  _214
REMARK   95  A    between atoms: _216  and  _218
REMARK   96  A    between atoms: _218  and  _219
REMARK   97  A    between atoms: _218  and  _221
REMARK   98  A    between atoms: _221  and  _222
REMARK   99  A    between atoms: _222  and  _223
REMARK  100  A    between atoms: _223  and  _224
REMARK  101  A    between atoms: _224  and  _225
REMARK  102  A    between atoms: _229  and  _231
REMARK  103  A    between atoms: _231  and  _232
REMARK  104  A    between atoms: _231  and  _234
REMARK  105  A    between atoms: _236  and  _238
REMARK  106  A    between atoms: _238  and  _239
REMARK  107  A    between atoms: _238  and  _241
REMARK  108  A    between atoms: _241  and  _242
REMARK  109  A    between atoms: _242  and  _243
REMARK  110  A    between atoms: _246  and  _248
REMARK  111  A    between atoms: _248  and  _249
REMARK  112  A    between atoms: _248  and  _251
REMARK  113  A    between atoms: _251  and  _252
REMARK  114  A    between atoms: _257  and  _259
REMARK  115  A    between atoms: _259  and  _260
REMARK  116  A    between atoms: _263  and  _265
REMARK  117  A    between atoms: _265  and  _266
REMARK  118  A    between atoms: _265  and  _268
REMARK  119  A    between atoms: _268  and  _269
REMARK  120  A    between atoms: _269  and  _270
REMARK  121  A    between atoms: _272  and  _274
REMARK  122  A    between atoms: _274  and  _275
REMARK  123  A    between atoms: _274  and  _277
REMARK  124  A    between atoms: _277  and  _278
REMARK  125  A    between atoms: _288  and  _290
REMARK  126  A    between atoms: _290  and  _291
REMARK  127  A    between atoms: _290  and  _293
REMARK  128  A    between atoms: _293  and  _294
REMARK  129  A    between atoms: _297  and  _299
REMARK  130  A    between atoms: _299  and  _300
REMARK  131  A    between atoms: _299  and  _302
REMARK  132  A    between atoms: _302  and  _303
REMARK  133  A    between atoms: _303  and  _304
REMARK  134  A    between atoms: _309  and  _311
REMARK  135  A    between atoms: _311  and  _312
REMARK  136  A    between atoms: _311  and  _314
REMARK  137  A    between atoms: _314  and  _315
REMARK  138  A    between atoms: _318  and  _320
REMARK  139  A    between atoms: _320  and  _321
REMARK  140  A    between atoms: _320  and  _323
REMARK  141  A    between atoms: _323  and  _324
REMARK  142  A    between atoms: _324  and  _325
REMARK  143  A    between atoms: _330  and  _332
REMARK  144  A    between atoms: _332  and  _333
REMARK  145  A    between atoms: _332  and  _335
REMARK  146  A    between atoms: _335  and  _336
REMARK  147  A    between atoms: _342  and  _344
REMARK  148  A    between atoms: _344  and  _345
REMARK  149  A    between atoms: _344  and  _347
REMARK  150  A    between atoms: _349  and  _351
REMARK  151  A    between atoms: _351  and  _352
REMARK  152  A    between atoms: _351  and  _354
REMARK  153  A    between atoms: _354  and  _355
REMARK  154  A    between atoms: _355  and  _356
REMARK  155  A    between atoms: _358  and  _360
REMARK  156  A    between atoms: _360  and  _361
REMARK  157  A    between atoms: _360  and  _363
REMARK  158  A    between atoms: _363  and  _364
REMARK  159  A    between atoms: _369  and  _371
REMARK  160  A    between atoms: _371  and  _372
REMARK  161  A    between atoms: _374  and  _376
REMARK  162  A    between atoms: _376  and  _377
REMARK  163  A    between atoms: _376  and  _379
REMARK  164  A    between atoms: _382  and  _384
REMARK  165  A    between atoms: _384  and  _385
REMARK  166  A    between atoms: _384  and  _387
REMARK  167  A    between atoms: _387  and  _388
REMARK  168  A    between atoms: _391  and  _393
REMARK  169  A    between atoms: _393  and  _394
REMARK  170  A    between atoms: _393  and  _396
REMARK  171  A    between atoms: _396  and  _397
REMARK  172  A    between atoms: _399  and  _401
REMARK  173  A    between atoms: _401  and  _402
REMARK  174  A    between atoms: _401  and  _404
REMARK  175  A    between atoms: _404  and  _405
REMARK  176  A    between atoms: _415  and  _417
REMARK  177  A    between atoms: _417  and  _418
REMARK  178  A    between atoms: _417  and  _420
REMARK  179  A    between atoms: _420  and  _421
REMARK  180  A    between atoms: _423  and  _425
REMARK  181  A    between atoms: _425  and  _426
REMARK  182  A    between atoms: _425  and  _428
REMARK  183  A    between atoms: _428  and  _429
REMARK  184  A    between atoms: _429  and  _430
REMARK  185  A    between atoms: _433  and  _435
REMARK  186  A    between atoms: _435  and  _436
REMARK  187  A    between atoms: _435  and  _438
REMARK  188  A    between atoms: _438  and  _439
REMARK  189  A    between atoms: _439  and  _440
REMARK  190  A    between atoms: _440  and  _441
REMARK                            x       y       z     vdW  Elec       q    Type
REMARK                         _______ _______ _______ _____ _____    ______ ____
ROOT
ATOM      1  O   HOH     1      20.448  23.666  78.835  0.00  0.00    +0.000 OA
ENDROOT
TORSDOF 0
REMARK  Name = ../refined-set-2016/3muz/3muz_pocket.pdb
REMARK  190 active torsions:
REMARK  status: ('A' for Active; 'I' for Inactive)
REMARK    1  A    between atoms: _1  and  _3
REMARK    2  A    between atoms: _3  and  _4
REMARK    3  A    between atoms: _3  and  _6
REMARK    4  A    between atoms: _6  and  _7
REMARK    5  A    between atoms: _12  and  _13
REMARK    6  A    between atoms: _15  and  _17
REMARK    7  A    between atoms: _17  and  _18
REMARK    8  A    between atoms: _17  and  _20
REMARK    9  A    between atoms: _20  and  _21
REMARK   10  A    between atoms: _26  and  _28
REMARK   11  A    between atoms: _28  and  _29
REMARK   12  A    between atoms: _28  and  _31
REMARK   13  A    between atoms: _34  and  _36
REMARK   14  A    between atoms: _36  and  _37
REMARK   15  A    between atoms: _36  and  _39
REMARK   16  A    between atoms: _39  and  _40
REMARK   17  A    between atoms: _43  and  _45
REMARK   18  A    between atoms: _45  and  _46
REMARK   19  A    between atoms: _45  and  _48
REMARK   20  A    between atoms: _48  and  _49
REMARK   21  A    between atoms: _52  and  _54
REMARK   22  A    between atoms: _54  and  _55
REMARK   23  A    between atoms: _54  and  _57
REMARK   24  A    between atoms: _57  and  _58
REMARK   25  A    between atoms: _58  and  _59
REMARK   26  A    between atoms: _64  and  _66
REMARK   27  A    between atoms: _66  and  _67
REMARK   28  A    between atoms: _66  and  _69
REMARK   29  A    between atoms: _69  and  _70
REMARK   30  A    between atoms: _73  and  _75
REMARK   31  A    between atoms: _75  and  _76
REMARK   32  A    between atoms: _75  and  _78
REMARK   33  A    between atoms: _78  and  _79
REMARK   34  A    between atoms: _79  and  _80
REMARK   35  A    between atoms: _82  and  _84
REMARK   36  A    between atoms: _84  and  _85
REMARK   37  A    between atoms: _84  and  _87
REMARK   38  A    between atoms: _87  and  _88
REMARK   39  A    between atoms: _93  and  _95
REMARK   40  A    between atoms: _95  and  _96
REMARK   41  A    between atoms: _95  and  _98
REMARK   42  A    between atoms: _98  and  _99
REMARK   43  A    between atoms: _104  and  _106
REMARK   44  A    between atoms: _106  and  _107
REMARK   45  A    between atoms: _106  and  _109
REMARK   46  A    between atoms: _109  and  _110
REMARK   47  A    between atoms: _110  and  _111
REMARK   48  A    between atoms: _111  and  _112
REMARK   49  A    between atoms: _121  and  _123
REMARK   50  A    between atoms: _123  and  _124
REMARK   51  A    between atoms: _123  and  _126
REMARK   52  A    between atoms: _126  and  _127
REMARK   53  A    between atoms: _132  and  _134
REMARK   54  A    between atoms: _134  and  _135
REMARK   55  A    between atoms: _134  and  _137
REMARK   56  A    between atoms: _137  and  _138
REMARK   57  A    between atoms: _138  and  _139
REMARK   58  A    between atoms: _139  and  _141
REMARK   59  A    between atoms: _141  and  MG_450
REMARK   60  A    between atoms: _142  and  _144
REMARK   61  A    between atoms: _144  and  _145
REMARK   62  A    between atoms: _144  and  _147
REMARK   63  A    between atoms: _147  and  _148
REMARK   64  A    between atoms: _153  and  _155
REMARK   65  A    between atoms: _155  and  _156
REMARK   66  A    between atoms: _155  and  _158
REMARK   67  A    between atoms: _158  and  _159
REMARK   68  A    between atoms: _159  and  _160
REMARK   69  A    between atoms: _162  and  _164
REMARK   70  A    between atoms: _164  and  _165
REMARK   71  A    between atoms: _164  and  _167
REMARK   72  A    between atoms: _167  and  _168
REMARK   73  A    between atoms: _173  and  _175
REMARK   74  A    between atoms: _175  and  _176
REMARK   75  A    between atoms: _175  and  _178
REMARK   76  A    between atoms: _178  and  _179
REMARK   77  A    between atoms: _179  and  _180
REMARK   78  A    between atoms: _180  and  _181
REMARK   79  A    between atoms: _181  and  MG_450
REMARK   80  A    between atoms: _183  and  _185
REMARK   81  A    between atoms: _185  and  _186
REMARK   82  A    between atoms: _185  and  _188
REMARK   83  A    between atoms: _188  and  _189
REMARK   84  A    between atoms: _189  and  _190
REMARK   85  A    between atoms: _193  and  _195
REMARK   86  A    between atoms: _195  and  _196
REMARK   87  A    between atoms: _195  and  _198
REMARK   88  A    between atoms: _198  and  _199
REMARK   89  A    between atoms: _199  and  _200
REMARK   90  A    between atoms: _202  and  _204
REMARK   91  A    between atoms: _204  and  _205
REMARK   92  A    between atoms: _204  and  _207
REMARK   93  A    between atoms: _207  and  _208
REMARK   94  A    between atoms: _213  and  _214
REMARK   95  A    between atoms: _216  and  _218
REMARK   96  A    between atoms: _218  and  _219
REMARK   97  A    between atoms: _218  and  _221
REMARK   98  A    between atoms: _221  and  _222
REMARK   99  A    between atoms: _222  and  _223
REMARK  100  A    between atoms: _223  and  _224
REMARK  101  A    between atoms: _224  and  _225
REMARK  102  A    between atoms: _229  and  _231
REMARK  103  A    between atoms: _231  and  _232
REMARK  104  A    between atoms: _231  and  _234
REMARK  105  A    between atoms: _236  and  _238
REMARK  106  A    between atoms: _238  and  _239
REMARK  107  A    between atoms: _238  and  _241
REMARK  108  A    between atoms: _241  and  _242
REMARK  109  A    between atoms: _242  and  _243
REMARK  110  A    between atoms: _246  and  _248
REMARK  111  A    between atoms: _248  and  _249
REMARK  112  A    between atoms: _248  and  _251
REMARK  113  A    between atoms: _251  and  _252
REMARK  114  A    between atoms: _257  and  _259
REMARK  115  A    between atoms: _259  and  _260
REMARK  116  A    between atoms: _263  and  _265
REMARK  117  A    between atoms: _265  and  _266
REMARK  118  A    between atoms: _265  and  _268
REMARK  119  A    between atoms: _268  and  _269
REMARK  120  A    between atoms: _269  and  _270
REMARK  121  A    between atoms: _272  and  _274
REMARK  122  A    between atoms: _274  and  _275
REMARK  123  A    between atoms: _274  and  _277
REMARK  124  A    between atoms: _277  and  _278
REMARK  125  A    between atoms: _288  and  _290
REMARK  126  A    between atoms: _290  and  _291
REMARK  127  A    between atoms: _290  and  _293
REMARK  128  A    between atoms: _293  and  _294
REMARK  129  A    between atoms: _297  and  _299
REMARK  130  A    between atoms: _299  and  _300
REMARK  131  A    between atoms: _299  and  _302
REMARK  132  A    between atoms: _302  and  _303
REMARK  133  A    between atoms: _303  and  _304
REMARK  134  A    between atoms: _309  and  _311
REMARK  135  A    between atoms: _311  and  _312
REMARK  136  A    between atoms: _311  and  _314
REMARK  137  A    between atoms: _314  and  _315
REMARK  138  A    between atoms: _318  and  _320
REMARK  139  A    between atoms: _320  and  _321
REMARK  140  A    between atoms: _320  and  _323
REMARK  141  A    between atoms: _323  and  _324
REMARK  142  A    between atoms: _324  and  _325
REMARK  143  A    between atoms: _330  and  _332
REMARK  144  A    between atoms: _332  and  _333
REMARK  145  A    between atoms: _332  and  _335
REMARK  146  A    between atoms: _335  and  _336
REMARK  147  A    between atoms: _342  and  _344
REMARK  148  A    between atoms: _344  and  _345
REMARK  149  A    between atoms: _344  and  _347
REMARK  150  A    between atoms: _349  and  _351
REMARK  151  A    between atoms: _351  and  _352
REMARK  152  A    between atoms: _351  and  _354
REMARK  153  A    between atoms: _354  and  _355
REMARK  154  A    between atoms: _355  and  _356
REMARK  155  A    between atoms: _358  and  _360
REMARK  156  A    between atoms: _360  and  _361
REMARK  157  A    between atoms: _360  and  _363
REMARK  158  A    between atoms: _363  and  _364
REMARK  159  A    between atoms: _369  and  _371
REMARK  160  A    between atoms: _371  and  _372
REMARK  161  A    between atoms: _374  and  _376
REMARK  162  A    between atoms: _376  and  _377
REMARK  163  A    between atoms: _376  and  _379
REMARK  164  A    between atoms: _382  and  _384
REMARK  165  A    between atoms: _384  and  _385
REMARK  166  A    between atoms: _384  and  _387
REMARK  167  A    between atoms: _387  and  _388
REMARK  168  A    between atoms: _391  and  _393
REMARK  169  A    between atoms: _393  and  _394
REMARK  170  A    between atoms: _393  and  _396
REMARK  171  A    between atoms: _396  and  _397
REMARK  172  A    between atoms: _399  and  _401
REMARK  173  A    between atoms: _401  and  _402
REMARK  174  A    between atoms: _401  and  _404
REMARK  175  A    between atoms: _404  and  _405
REMARK  176  A    between atoms: _415  and  _417
REMARK  177  A    between atoms: _417  and  _418
REMARK  178  A    between atoms: _417  and  _420
REMARK  179  A    between atoms: _420  and  _421
REMARK  180  A    between atoms: _423  and  _425
REMARK  181  A    between atoms: _425  and  _426
REMARK  182  A    between atoms: _425  and  _428
REMARK  183  A    between atoms: _428  and  _429
REMARK  184  A    between atoms: _429  and  _430
REMARK  185  A    between atoms: _433  and  _435
REMARK  186  A    between atoms: _435  and  _436
REMARK  187  A    between atoms: _435  and  _438
REMARK  188  A    between atoms: _438  and  _439
REMARK  189  A    between atoms: _439  and  _440
REMARK  190  A    between atoms: _440  and  _441
REMARK                            x       y       z     vdW  Elec       q    Type
REMARK                         _______ _______ _______ _____ _____    ______ ____
ROOT
ATOM      1  O   HOH     1      21.781  21.973  76.543  0.00  0.00    +0.000 OA
ENDROOT
TORSDOF 0
REMARK  Name = ../refined-set-2016/3muz/3muz_pocket.pdb
REMARK  190 active torsions:
REMARK  status: ('A' for Active; 'I' for Inactive)
REMARK    1  A    between atoms: _1  and  _3
REMARK    2  A    between atoms: _3  and  _4
REMARK    3  A    between atoms: _3  and  _6
REMARK    4  A    between atoms: _6  and  _7
REMARK    5  A    between atoms: _12  and  _13
REMARK    6  A    between atoms: _15  and  _17
REMARK    7  A    between atoms: _17  and  _18
REMARK    8  A    between atoms: _17  and  _20
REMARK    9  A    between atoms: _20  and  _21
REMARK   10  A    between atoms: _26  and  _28
REMARK   11  A    between atoms: _28  and  _29
REMARK   12  A    between atoms: _28  and  _31
REMARK   13  A    between atoms: _34  and  _36
REMARK   14  A    between atoms: _36  and  _37
REMARK   15  A    between atoms: _36  and  _39
REMARK   16  A    between atoms: _39  and  _40
REMARK   17  A    between atoms: _43  and  _45
REMARK   18  A    between atoms: _45  and  _46
REMARK   19  A    between atoms: _45  and  _48
REMARK   20  A    between atoms: _48  and  _49
REMARK   21  A    between atoms: _52  and  _54
REMARK   22  A    between atoms: _54  and  _55
REMARK   23  A    between atoms: _54  and  _57
REMARK   24  A    between atoms: _57  and  _58
REMARK   25  A    between atoms: _58  and  _59
REMARK   26  A    between atoms: _64  and  _66
REMARK   27  A    between atoms: _66  and  _67
REMARK   28  A    between atoms: _66  and  _69
REMARK   29  A    between atoms: _69  and  _70
REMARK   30  A    between atoms: _73  and  _75
REMARK   31  A    between atoms: _75  and  _76
REMARK   32  A    between atoms: _75  and  _78
REMARK   33  A    between atoms: _78  and  _79
REMARK   34  A    between atoms: _79  and  _80
REMARK   35  A    between atoms: _82  and  _84
REMARK   36  A    between atoms: _84  and  _85
REMARK   37  A    between atoms: _84  and  _87
REMARK   38  A    between atoms: _87  and  _88
REMARK   39  A    between atoms: _93  and  _95
REMARK   40  A    between atoms: _95  and  _96
REMARK   41  A    between atoms: _95  and  _98
REMARK   42  A    between atoms: _98  and  _99
REMARK   43  A    between atoms: _104  and  _106
REMARK   44  A    between atoms: _106  and  _107
REMARK   45  A    between atoms: _106  and  _109
REMARK   46  A    between atoms: _109  and  _110
REMARK   47  A    between atoms: _110  and  _111
REMARK   48  A    between atoms: _111  and  _112
REMARK   49  A    between atoms: _121  and  _123
REMARK   50  A    between atoms: _123  and  _124
REMARK   51  A    between atoms: _123  and  _126
REMARK   52  A    between atoms: _126  and  _127
REMARK   53  A    between atoms: _132  and  _134
REMARK   54  A    between atoms: _134  and  _135
REMARK   55  A    between atoms: _134  and  _137
REMARK   56  A    between atoms: _137  and  _138
REMARK   57  A    between atoms: _138  and  _139
REMARK   58  A    between atoms: _139  and  _141
REMARK   59  A    between atoms: _141  and  MG_450
REMARK   60  A    between atoms: _142  and  _144
REMARK   61  A    between atoms: _144  and  _145
REMARK   62  A    between atoms: _144  and  _147
REMARK   63  A    between atoms: _147  and  _148
REMARK   64  A    between atoms: _153  and  _155
REMARK   65  A    between atoms: _155  and  _156
REMARK   66  A    between atoms: _155  and  _158
REMARK   67  A    between atoms: _158  and  _159
REMARK   68  A    between atoms: _159  and  _160
REMARK   69  A    between atoms: _162  and  _164
REMARK   70  A    between atoms: _164  and  _165
REMARK   71  A    between atoms: _164  and  _167
REMARK   72  A    between atoms: _167  and  _168
REMARK   73  A    between atoms: _173  and  _175
REMARK   74  A    between atoms: _175  and  _176
REMARK   75  A    between atoms: _175  and  _178
REMARK   76  A    between atoms: _178  and  _179
REMARK   77  A    between atoms: _179  and  _180
REMARK   78  A    between atoms: _180  and  _181
REMARK   79  A    between atoms: _181  and  MG_450
REMARK   80  A    between atoms: _183  and  _185
REMARK   81  A    between atoms: _185  and  _186
REMARK   82  A    between atoms: _185  and  _188
REMARK   83  A    between atoms: _188  and  _189
REMARK   84  A    between atoms: _189  and  _190
REMARK   85  A    between atoms: _193  and  _195
REMARK   86  A    between atoms: _195  and  _196
REMARK   87  A    between atoms: _195  and  _198
REMARK   88  A    between atoms: _198  and  _199
REMARK   89  A    between atoms: _199  and  _200
REMARK   90  A    between atoms: _202  and  _204
REMARK   91  A    between atoms: _204  and  _205
REMARK   92  A    between atoms: _204  and  _207
REMARK   93  A    between atoms: _207  and  _208
REMARK   94  A    between atoms: _213  and  _214
REMARK   95  A    between atoms: _216  and  _218
REMARK   96  A    between atoms: _218  and  _219
REMARK   97  A    between atoms: _218  and  _221
REMARK   98  A    between atoms: _221  and  _222
REMARK   99  A    between atoms: _222  and  _223
REMARK  100  A    between atoms: _223  and  _224
REMARK  101  A    between atoms: _224  and  _225
REMARK  102  A    between atoms: _229  and  _231
REMARK  103  A    between atoms: _231  and  _232
REMARK  104  A    between atoms: _231  and  _234
REMARK  105  A    between atoms: _236  and  _238
REMARK  106  A    between atoms: _238  and  _239
REMARK  107  A    between atoms: _238  and  _241
REMARK  108  A    between atoms: _241  and  _242
REMARK  109  A    between atoms: _242  and  _243
REMARK  110  A    between atoms: _246  and  _248
REMARK  111  A    between atoms: _248  and  _249
REMARK  112  A    between atoms: _248  and  _251
REMARK  113  A    between atoms: _251  and  _252
REMARK  114  A    between atoms: _257  and  _259
REMARK  115  A    between atoms: _259  and  _260
REMARK  116  A    between atoms: _263  and  _265
REMARK  117  A    between atoms: _265  and  _266
REMARK  118  A    between atoms: _265  and  _268
REMARK  119  A    between atoms: _268  and  _269
REMARK  120  A    between atoms: _269  and  _270
REMARK  121  A    between atoms: _272  and  _274
REMARK  122  A    between atoms: _274  and  _275
REMARK  123  A    between atoms: _274  and  _277
REMARK  124  A    between atoms: _277  and  _278
REMARK  125  A    between atoms: _288  and  _290
REMARK  126  A    between atoms: _290  and  _291
REMARK  127  A    between atoms: _290  and  _293
REMARK  128  A    between atoms: _293  and  _294
REMARK  129  A    between atoms: _297  and  _299
REMARK  130  A    between atoms: _299  and  _300
REMARK  131  A    between atoms: _299  and  _302
REMARK  132  A    between atoms: _302  and  _303
REMARK  133  A    between atoms: _303  and  _304
REMARK  134  A    between atoms: _309  and  _311
REMARK  135  A    between atoms: _311  and  _312
REMARK  136  A    between atoms: _311  and  _314
REMARK  137  A    between atoms: _314  and  _315
REMARK  138  A    between atoms: _318  and  _320
REMARK  139  A    between atoms: _320  and  _321
REMARK  140  A    between atoms: _320  and  _323
REMARK  141  A    between atoms: _323  and  _324
REMARK  142  A    between atoms: _324  and  _325
REMARK  143  A    between atoms: _330  and  _332
REMARK  144  A    between atoms: _332  and  _333
REMARK  145  A    between atoms: _332  and  _335
REMARK  146  A    between atoms: _335  and  _336
REMARK  147  A    between atoms: _342  and  _344
REMARK  148  A    between atoms: _344  and  _345
REMARK  149  A    between atoms: _344  and  _347
REMARK  150  A    between atoms: _349  and  _351
REMARK  151  A    between atoms: _351  and  _352
REMARK  152  A    between atoms: _351  and  _354
REMARK  153  A    between atoms: _354  and  _355
REMARK  154  A    between atoms: _355  and  _356
REMARK  155  A    between atoms: _358  and  _360
REMARK  156  A    between atoms: _360  and  _361
REMARK  157  A    between atoms: _360  and  _363
REMARK  158  A    between atoms: _363  and  _364
REMARK  159  A    between atoms: _369  and  _371
REMARK  160  A    between atoms: _371  and  _372
REMARK  161  A    between atoms: _374  and  _376
REMARK  162  A    between atoms: _376  and  _377
REMARK  163  A    between atoms: _376  and  _379
REMARK  164  A    between atoms: _382  and  _384
REMARK  165  A    between atoms: _384  and  _385
REMARK  166  A    between atoms: _384  and  _387
REMARK  167  A    between atoms: _387  and  _388
REMARK  168  A    between atoms: _391  and  _393
REMARK  169  A    between atoms: _393  and  _394
REMARK  170  A    between atoms: _393  and  _396
REMARK  171  A    between atoms: _396  and  _397
REMARK  172  A    between atoms: _399  and  _401
REMARK  173  A    between atoms: _401  and  _402
REMARK  174  A    between atoms: _401  and  _404
REMARK  175  A    between atoms: _404  and  _405
REMARK  176  A    between atoms: _415  and  _417
REMARK  177  A    between atoms: _417  and  _418
REMARK  178  A    between atoms: _417  and  _420
REMARK  179  A    between atoms: _420  and  _421
REMARK  180  A    between atoms: _423  and  _425
REMARK  181  A    between atoms: _425  and  _426
REMARK  182  A    between atoms: _425  and  _428
REMARK  183  A    between atoms: _428  and  _429
REMARK  184  A    between atoms: _429  and  _430
REMARK  185  A    between atoms: _433  and  _435
REMARK  186  A    between atoms: _435  and  _436
REMARK  187  A    between atoms: _435  and  _438
REMARK  188  A    between atoms: _438  and  _439
REMARK  189  A    between atoms: _439  and  _440
REMARK  190  A    between atoms: _440  and  _441
REMARK                            x       y       z     vdW  Elec       q    Type
REMARK                         _______ _______ _______ _____ _____    ______ ____
ROOT
ATOM      1  O   HOH     1      25.907  25.759  74.711  0.00  0.00    +0.000 OA
ENDROOT
TORSDOF 0
REMARK  Name = ../refined-set-2016/3muz/3muz_pocket.pdb
REMARK  190 active torsions:
REMARK  status: ('A' for Active; 'I' for Inactive)
REMARK    1  A    between atoms: _1  and  _3
REMARK    2  A    between atoms: _3  and  _4
REMARK    3  A    between atoms: _3  and  _6
REMARK    4  A    between atoms: _6  and  _7
REMARK    5  A    between atoms: _12  and  _13
REMARK    6  A    between atoms: _15  and  _17
REMARK    7  A    between atoms: _17  and  _18
REMARK    8  A    between atoms: _17  and  _20
REMARK    9  A    between atoms: _20  and  _21
REMARK   10  A    between atoms: _26  and  _28
REMARK   11  A    between atoms: _28  and  _29
REMARK   12  A    between atoms: _28  and  _31
REMARK   13  A    between atoms: _34  and  _36
REMARK   14  A    between atoms: _36  and  _37
REMARK   15  A    between atoms: _36  and  _39
REMARK   16  A    between atoms: _39  and  _40
REMARK   17  A    between atoms: _43  and  _45
REMARK   18  A    between atoms: _45  and  _46
REMARK   19  A    between atoms: _45  and  _48
REMARK   20  A    between atoms: _48  and  _49
REMARK   21  A    between atoms: _52  and  _54
REMARK   22  A    between atoms: _54  and  _55
REMARK   23  A    between atoms: _54  and  _57
REMARK   24  A    between atoms: _57  and  _58
REMARK   25  A    between atoms: _58  and  _59
REMARK   26  A    between atoms: _64  and  _66
REMARK   27  A    between atoms: _66  and  _67
REMARK   28  A    between atoms: _66  and  _69
REMARK   29  A    between atoms: _69  and  _70
REMARK   30  A    between atoms: _73  and  _75
REMARK   31  A    between atoms: _75  and  _76
REMARK   32  A    between atoms: _75  and  _78
REMARK   33  A    between atoms: _78  and  _79
REMARK   34  A    between atoms: _79  and  _80
REMARK   35  A    between atoms: _82  and  _84
REMARK   36  A    between atoms: _84  and  _85
REMARK   37  A    between atoms: _84  and  _87
REMARK   38  A    between atoms: _87  and  _88
REMARK   39  A    between atoms: _93  and  _95
REMARK   40  A    between atoms: _95  and  _96
REMARK   41  A    between atoms: _95  and  _98
REMARK   42  A    between atoms: _98  and  _99
REMARK   43  A    between atoms: _104  and  _106
REMARK   44  A    between atoms: _106  and  _107
REMARK   45  A    between atoms: _106  and  _109
REMARK   46  A    between atoms: _109  and  _110
REMARK   47  A    between atoms: _110  and  _111
REMARK   48  A    between atoms: _111  and  _112
REMARK   49  A    between atoms: _121  and  _123
REMARK   50  A    between atoms: _123  and  _124
REMARK   51  A    between atoms: _123  and  _126
REMARK   52  A    between atoms: _126  and  _127
REMARK   53  A    between atoms: _132  and  _134
REMARK   54  A    between atoms: _134  and  _135
REMARK   55  A    between atoms: _134  and  _137
REMARK   56  A    between atoms: _137  and  _138
REMARK   57  A    between atoms: _138  and  _139
REMARK   58  A    between atoms: _139  and  _141
REMARK   59  A    between atoms: _141  and  MG_450
REMARK   60  A    between atoms: _142  and  _144
REMARK   61  A    between atoms: _144  and  _145
REMARK   62  A    between atoms: _144  and  _147
REMARK   63  A    between atoms: _147  and  _148
REMARK   64  A    between atoms: _153  and  _155
REMARK   65  A    between atoms: _155  and  _156
REMARK   66  A    between atoms: _155  and  _158
REMARK   67  A    between atoms: _158  and  _159
REMARK   68  A    between atoms: _159  and  _160
REMARK   69  A    between atoms: _162  and  _164
REMARK   70  A    between atoms: _164  and  _165
REMARK   71  A    between atoms: _164  and  _167
REMARK   72  A    between atoms: _167  and  _168
REMARK   73  A    between atoms: _173  and  _175
REMARK   74  A    between atoms: _175  and  _176
REMARK   75  A    between atoms: _175  and  _178
REMARK   76  A    between atoms: _178  and  _179
REMARK   77  A    between atoms: _179  and  _180
REMARK   78  A    between atoms: _180  and  _181
REMARK   79  A    between atoms: _181  and  MG_450
REMARK   80  A    between atoms: _183  and  _185
REMARK   81  A    between atoms: _185  and  _186
REMARK   82  A    between atoms: _185  and  _188
REMARK   83  A    between atoms: _188  and  _189
REMARK   84  A    between atoms: _189  and  _190
REMARK   85  A    between atoms: _193  and  _195
REMARK   86  A    between atoms: _195  and  _196
REMARK   87  A    between atoms: _195  and  _198
REMARK   88  A    between atoms: _198  and  _199
REMARK   89  A    between atoms: _199  and  _200
REMARK   90  A    between atoms: _202  and  _204
REMARK   91  A    between atoms: _204  and  _205
REMARK   92  A    between atoms: _204  and  _207
REMARK   93  A    between atoms: _207  and  _208
REMARK   94  A    between atoms: _213  and  _214
REMARK   95  A    between atoms: _216  and  _218
REMARK   96  A    between atoms: _218  and  _219
REMARK   97  A    between atoms: _218  and  _221
REMARK   98  A    between atoms: _221  and  _222
REMARK   99  A    between atoms: _222  and  _223
REMARK  100  A    between atoms: _223  and  _224
REMARK  101  A    between atoms: _224  and  _225
REMARK  102  A    between atoms: _229  and  _231
REMARK  103  A    between atoms: _231  and  _232
REMARK  104  A    between atoms: _231  and  _234
REMARK  105  A    between atoms: _236  and  _238
REMARK  106  A    between atoms: _238  and  _239
REMARK  107  A    between atoms: _238  and  _241
REMARK  108  A    between atoms: _241  and  _242
REMARK  109  A    between atoms: _242  and  _243
REMARK  110  A    between atoms: _246  and  _248
REMARK  111  A    between atoms: _248  and  _249
REMARK  112  A    between atoms: _248  and  _251
REMARK  113  A    between atoms: _251  and  _252
REMARK  114  A    between atoms: _257  and  _259
REMARK  115  A    between atoms: _259  and  _260
REMARK  116  A    between atoms: _263  and  _265
REMARK  117  A    between atoms: _265  and  _266
REMARK  118  A    between atoms: _265  and  _268
REMARK  119  A    between atoms: _268  and  _269
REMARK  120  A    between atoms: _269  and  _270
REMARK  121  A    between atoms: _272  and  _274
REMARK  122  A    between atoms: _274  and  _275
REMARK  123  A    between atoms: _274  and  _277
REMARK  124  A    between atoms: _277  and  _278
REMARK  125  A    between atoms: _288  and  _290
REMARK  126  A    between atoms: _290  and  _291
REMARK  127  A    between atoms: _290  and  _293
REMARK  128  A    between atoms: _293  and  _294
REMARK  129  A    between atoms: _297  and  _299
REMARK  130  A    between atoms: _299  and  _300
REMARK  131  A    between atoms: _299  and  _302
REMARK  132  A    between atoms: _302  and  _303
REMARK  133  A    between atoms: _303  and  _304
REMARK  134  A    between atoms: _309  and  _311
REMARK  135  A    between atoms: _311  and  _312
REMARK  136  A    between atoms: _311  and  _314
REMARK  137  A    between atoms: _314  and  _315
REMARK  138  A    between atoms: _318  and  _320
REMARK  139  A    between atoms: _320  and  _321
REMARK  140  A    between atoms: _320  and  _323
REMARK  141  A    between atoms: _323  and  _324
REMARK  142  A    between atoms: _324  and  _325
REMARK  143  A    between atoms: _330  and  _332
REMARK  144  A    between atoms: _332  and  _333
REMARK  145  A    between atoms: _332  and  _335
REMARK  146  A    between atoms: _335  and  _336
REMARK  147  A    between atoms: _342  and  _344
REMARK  148  A    between atoms: _344  and  _345
REMARK  149  A    between atoms: _344  and  _347
REMARK  150  A    between atoms: _349  and  _351
REMARK  151  A    between atoms: _351  and  _352
REMARK  152  A    between atoms: _351  and  _354
REMARK  153  A    between atoms: _354  and  _355
REMARK  154  A    between atoms: _355  and  _356
REMARK  155  A    between atoms: _358  and  _360
REMARK  156  A    between atoms: _360  and  _361
REMARK  157  A    between atoms: _360  and  _363
REMARK  158  A    between atoms: _363  and  _364
REMARK  159  A    between atoms: _369  and  _371
REMARK  160  A    between atoms: _371  and  _372
REMARK  161  A    between atoms: _374  and  _376
REMARK  162  A    between atoms: _376  and  _377
REMARK  163  A    between atoms: _376  and  _379
REMARK  164  A    between atoms: _382  and  _384
REMARK  165  A    between atoms: _384  and  _385
REMARK  166  A    between atoms: _384  and  _387
REMARK  167  A    between atoms: _387  and  _388
REMARK  168  A    between atoms: _391  and  _393
REMARK  169  A    between atoms: _393  and  _394
REMARK  170  A    between atoms: _393  and  _396
REMARK  171  A    between atoms: _396  and  _397
REMARK  172  A    between atoms: _399  and  _401
REMARK  173  A    between atoms: _401  and  _402
REMARK  174  A    between atoms: _401  and  _404
REMARK  175  A    between atoms: _404  and  _405
REMARK  176  A    between atoms: _415  and  _417
REMARK  177  A    between atoms: _417  and  _418
REMARK  178  A    between atoms: _417  and  _420
REMARK  179  A    between atoms: _420  and  _421
REMARK  180  A    between atoms: _423  and  _425
REMARK  181  A    between atoms: _425  and  _426
REMARK  182  A    between atoms: _425  and  _428
REMARK  183  A    between atoms: _428  and  _429
REMARK  184  A    between atoms: _429  and  _430
REMARK  185  A    between atoms: _433  and  _435
REMARK  186  A    between atoms: _435  and  _436
REMARK  187  A    between atoms: _435  and  _438
REMARK  188  A    between atoms: _438  and  _439
REMARK  189  A    between atoms: _439  and  _440
REMARK  190  A    between atoms: _440  and  _441
REMARK                            x       y       z     vdW  Elec       q    Type
REMARK                         _______ _______ _______ _____ _____    ______ ____
ROOT
ATOM      1  O   HOH     1      24.186  33.019  72.509  0.00  0.00    +0.000 OA
ENDROOT
TORSDOF 0
REMARK  Name = ../refined-set-2016/3muz/3muz_pocket.pdb
REMARK  190 active torsions:
REMARK  status: ('A' for Active; 'I' for Inactive)
REMARK    1  A    between atoms: _1  and  _3
REMARK    2  A    between atoms: _3  and  _4
REMARK    3  A    between atoms: _3  and  _6
REMARK    4  A    between atoms: _6  and  _7
REMARK    5  A    between atoms: _12  and  _13
REMARK    6  A    between atoms: _15  and  _17
REMARK    7  A    between atoms: _17  and  _18
REMARK    8  A    between atoms: _17  and  _20
REMARK    9  A    between atoms: _20  and  _21
REMARK   10  A    between atoms: _26  and  _28
REMARK   11  A    between atoms: _28  and  _29
REMARK   12  A    between atoms: _28  and  _31
REMARK   13  A    between atoms: _34  and  _36
REMARK   14  A    between atoms: _36  and  _37
REMARK   15  A    between atoms: _36  and  _39
REMARK   16  A    between atoms: _39  and  _40
REMARK   17  A    between atoms: _43  and  _45
REMARK   18  A    between atoms: _45  and  _46
REMARK   19  A    between atoms: _45  and  _48
REMARK   20  A    between atoms: _48  and  _49
REMARK   21  A    between atoms: _52  and  _54
REMARK   22  A    between atoms: _54  and  _55
REMARK   23  A    between atoms: _54  and  _57
REMARK   24  A    between atoms: _57  and  _58
REMARK   25  A    between atoms: _58  and  _59
REMARK   26  A    between atoms: _64  and  _66
REMARK   27  A    between atoms: _66  and  _67
REMARK   28  A    between atoms: _66  and  _69
REMARK   29  A    between atoms: _69  and  _70
REMARK   30  A    between atoms: _73  and  _75
REMARK   31  A    between atoms: _75  and  _76
REMARK   32  A    between atoms: _75  and  _78
REMARK   33  A    between atoms: _78  and  _79
REMARK   34  A    between atoms: _79  and  _80
REMARK   35  A    between atoms: _82  and  _84
REMARK   36  A    between atoms: _84  and  _85
REMARK   37  A    between atoms: _84  and  _87
REMARK   38  A    between atoms: _87  and  _88
REMARK   39  A    between atoms: _93  and  _95
REMARK   40  A    between atoms: _95  and  _96
REMARK   41  A    between atoms: _95  and  _98
REMARK   42  A    between atoms: _98  and  _99
REMARK   43  A    between atoms: _104  and  _106
REMARK   44  A    between atoms: _106  and  _107
REMARK   45  A    between atoms: _106  and  _109
REMARK   46  A    between atoms: _109  and  _110
REMARK   47  A    between atoms: _110  and  _111
REMARK   48  A    between atoms: _111  and  _112
REMARK   49  A    between atoms: _121  and  _123
REMARK   50  A    between atoms: _123  and  _124
REMARK   51  A    between atoms: _123  and  _126
REMARK   52  A    between atoms: _126  and  _127
REMARK   53  A    between atoms: _132  and  _134
REMARK   54  A    between atoms: _134  and  _135
REMARK   55  A    between atoms: _134  and  _137
REMARK   56  A    between atoms: _137  and  _138
REMARK   57  A    between atoms: _138  and  _139
REMARK   58  A    between atoms: _139  and  _141
REMARK   59  A    between atoms: _141  and  MG_450
REMARK   60  A    between atoms: _142  and  _144
REMARK   61  A    between atoms: _144  and  _145
REMARK   62  A    between atoms: _144  and  _147
REMARK   63  A    between atoms: _147  and  _148
REMARK   64  A    between atoms: _153  and  _155
REMARK   65  A    between atoms: _155  and  _156
REMARK   66  A    between atoms: _155  and  _158
REMARK   67  A    between atoms: _158  and  _159
REMARK   68  A    between atoms: _159  and  _160
REMARK   69  A    between atoms: _162  and  _164
REMARK   70  A    between atoms: _164  and  _165
REMARK   71  A    between atoms: _164  and  _167
REMARK   72  A    between atoms: _167  and  _168
REMARK   73  A    between atoms: _173  and  _175
REMARK   74  A    between atoms: _175  and  _176
REMARK   75  A    between atoms: _175  and  _178
REMARK   76  A    between atoms: _178  and  _179
REMARK   77  A    between atoms: _179  and  _180
REMARK   78  A    between atoms: _180  and  _181
REMARK   79  A    between atoms: _181  and  MG_450
REMARK   80  A    between atoms: _183  and  _185
REMARK   81  A    between atoms: _185  and  _186
REMARK   82  A    between atoms: _185  and  _188
REMARK   83  A    between atoms: _188  and  _189
REMARK   84  A    between atoms: _189  and  _190
REMARK   85  A    between atoms: _193  and  _195
REMARK   86  A    between atoms: _195  and  _196
REMARK   87  A    between atoms: _195  and  _198
REMARK   88  A    between atoms: _198  and  _199
REMARK   89  A    between atoms: _199  and  _200
REMARK   90  A    between atoms: _202  and  _204
REMARK   91  A    between atoms: _204  and  _205
REMARK   92  A    between atoms: _204  and  _207
REMARK   93  A    between atoms: _207  and  _208
REMARK   94  A    between atoms: _213  and  _214
REMARK   95  A    between atoms: _216  and  _218
REMARK   96  A    between atoms: _218  and  _219
REMARK   97  A    between atoms: _218  and  _221
REMARK   98  A    between atoms: _221  and  _222
REMARK   99  A    between atoms: _222  and  _223
REMARK  100  A    between atoms: _223  and  _224
REMARK  101  A    between atoms: _224  and  _225
REMARK  102  A    between atoms: _229  and  _231
REMARK  103  A    between atoms: _231  and  _232
REMARK  104  A    between atoms: _231  and  _234
REMARK  105  A    between atoms: _236  and  _238
REMARK  106  A    between atoms: _238  and  _239
REMARK  107  A    between atoms: _238  and  _241
REMARK  108  A    between atoms: _241  and  _242
REMARK  109  A    between atoms: _242  and  _243
REMARK  110  A    between atoms: _246  and  _248
REMARK  111  A    between atoms: _248  and  _249
REMARK  112  A    between atoms: _248  and  _251
REMARK  113  A    between atoms: _251  and  _252
REMARK  114  A    between atoms: _257  and  _259
REMARK  115  A    between atoms: _259  and  _260
REMARK  116  A    between atoms: _263  and  _265
REMARK  117  A    between atoms: _265  and  _266
REMARK  118  A    between atoms: _265  and  _268
REMARK  119  A    between atoms: _268  and  _269
REMARK  120  A    between atoms: _269  and  _270
REMARK  121  A    between atoms: _272  and  _274
REMARK  122  A    between atoms: _274  and  _275
REMARK  123  A    between atoms: _274  and  _277
REMARK  124  A    between atoms: _277  and  _278
REMARK  125  A    between atoms: _288  and  _290
REMARK  126  A    between atoms: _290  and  _291
REMARK  127  A    between atoms: _290  and  _293
REMARK  128  A    between atoms: _293  and  _294
REMARK  129  A    between atoms: _297  and  _299
REMARK  130  A    between atoms: _299  and  _300
REMARK  131  A    between atoms: _299  and  _302
REMARK  132  A    between atoms: _302  and  _303
REMARK  133  A    between atoms: _303  and  _304
REMARK  134  A    between atoms: _309  and  _311
REMARK  135  A    between atoms: _311  and  _312
REMARK  136  A    between atoms: _311  and  _314
REMARK  137  A    between atoms: _314  and  _315
REMARK  138  A    between atoms: _318  and  _320
REMARK  139  A    between atoms: _320  and  _321
REMARK  140  A    between atoms: _320  and  _323
REMARK  141  A    between atoms: _323  and  _324
REMARK  142  A    between atoms: _324  and  _325
REMARK  143  A    between atoms: _330  and  _332
REMARK  144  A    between atoms: _332  and  _333
REMARK  145  A    between atoms: _332  and  _335
REMARK  146  A    between atoms: _335  and  _336
REMARK  147  A    between atoms: _342  and  _344
REMARK  148  A    between atoms: _344  and  _345
REMARK  149  A    between atoms: _344  and  _347
REMARK  150  A    between atoms: _349  and  _351
REMARK  151  A    between atoms: _351  and  _352
REMARK  152  A    between atoms: _351  and  _354
REMARK  153  A    between atoms: _354  and  _355
REMARK  154  A    between atoms: _355  and  _356
REMARK  155  A    between atoms: _358  and  _360
REMARK  156  A    between atoms: _360  and  _361
REMARK  157  A    between atoms: _360  and  _363
REMARK  158  A    between atoms: _363  and  _364
REMARK  159  A    between atoms: _369  and  _371
REMARK  160  A    between atoms: _371  and  _372
REMARK  161  A    between atoms: _374  and  _376
REMARK  162  A    between atoms: _376  and  _377
REMARK  163  A    between atoms: _376  and  _379
REMARK  164  A    between atoms: _382  and  _384
REMARK  165  A    between atoms: _384  and  _385
REMARK  166  A    between atoms: _384  and  _387
REMARK  167  A    between atoms: _387  and  _388
REMARK  168  A    between atoms: _391  and  _393
REMARK  169  A    between atoms: _393  and  _394
REMARK  170  A    between atoms: _393  and  _396
REMARK  171  A    between atoms: _396  and  _397
REMARK  172  A    between atoms: _399  and  _401
REMARK  173  A    between atoms: _401  and  _402
REMARK  174  A    between atoms: _401  and  _404
REMARK  175  A    between atoms: _404  and  _405
REMARK  176  A    between atoms: _415  and  _417
REMARK  177  A    between atoms: _417  and  _418
REMARK  178  A    between atoms: _417  and  _420
REMARK  179  A    between atoms: _420  and  _421
REMARK  180  A    between atoms: _423  and  _425
REMARK  181  A    between atoms: _425  and  _426
REMARK  182  A    between atoms: _425  and  _428
REMARK  183  A    between atoms: _428  and  _429
REMARK  184  A    between atoms: _429  and  _430
REMARK  185  A    between atoms: _433  and  _435
REMARK  186  A    between atoms: _435  and  _436
REMARK  187  A    between atoms: _435  and  _438
REMARK  188  A    between atoms: _438  and  _439
REMARK  189  A    between atoms: _439  and  _440
REMARK  190  A    between atoms: _440  and  _441
REMARK                            x       y       z     vdW  Elec       q    Type
REMARK                         _______ _______ _______ _____ _____    ______ ____
ROOT
ATOM      1  O   HOH     1      16.921  25.441  79.582  0.00  0.00    +0.000 OA
ENDROOT
TORSDOF 0
REMARK  Name = ../refined-set-2016/3muz/3muz_pocket.pdb
REMARK  190 active torsions:
REMARK  status: ('A' for Active; 'I' for Inactive)
REMARK    1  A    between atoms: _1  and  _3
REMARK    2  A    between atoms: _3  and  _4
REMARK    3  A    between atoms: _3  and  _6
REMARK    4  A    between atoms: _6  and  _7
REMARK    5  A    between atoms: _12  and  _13
REMARK    6  A    between atoms: _15  and  _17
REMARK    7  A    between atoms: _17  and  _18
REMARK    8  A    between atoms: _17  and  _20
REMARK    9  A    between atoms: _20  and  _21
REMARK   10  A    between atoms: _26  and  _28
REMARK   11  A    between atoms: _28  and  _29
REMARK   12  A    between atoms: _28  and  _31
REMARK   13  A    between atoms: _34  and  _36
REMARK   14  A    between atoms: _36  and  _37
REMARK   15  A    between atoms: _36  and  _39
REMARK   16  A    between atoms: _39  and  _40
REMARK   17  A    between atoms: _43  and  _45
REMARK   18  A    between atoms: _45  and  _46
REMARK   19  A    between atoms: _45  and  _48
REMARK   20  A    between atoms: _48  and  _49
REMARK   21  A    between atoms: _52  and  _54
REMARK   22  A    between atoms: _54  and  _55
REMARK   23  A    between atoms: _54  and  _57
REMARK   24  A    between atoms: _57  and  _58
REMARK   25  A    between atoms: _58  and  _59
REMARK   26  A    between atoms: _64  and  _66
REMARK   27  A    between atoms: _66  and  _67
REMARK   28  A    between atoms: _66  and  _69
REMARK   29  A    between atoms: _69  and  _70
REMARK   30  A    between atoms: _73  and  _75
REMARK   31  A    between atoms: _75  and  _76
REMARK   32  A    between atoms: _75  and  _78
REMARK   33  A    between atoms: _78  and  _79
REMARK   34  A    between atoms: _79  and  _80
REMARK   35  A    between atoms: _82  and  _84
REMARK   36  A    between atoms: _84  and  _85
REMARK   37  A    between atoms: _84  and  _87
REMARK   38  A    between atoms: _87  and  _88
REMARK   39  A    between atoms: _93  and  _95
REMARK   40  A    between atoms: _95  and  _96
REMARK   41  A    between atoms: _95  and  _98
REMARK   42  A    between atoms: _98  and  _99
REMARK   43  A    between atoms: _104  and  _106
REMARK   44  A    between atoms: _106  and  _107
REMARK   45  A    between atoms: _106  and  _109
REMARK   46  A    between atoms: _109  and  _110
REMARK   47  A    between atoms: _110  and  _111
REMARK   48  A    between atoms: _111  and  _112
REMARK   49  A    between atoms: _121  and  _123
REMARK   50  A    between atoms: _123  and  _124
REMARK   51  A    between atoms: _123  and  _126
REMARK   52  A    between atoms: _126  and  _127
REMARK   53  A    between atoms: _132  and  _134
REMARK   54  A    between atoms: _134  and  _135
REMARK   55  A    between atoms: _134  and  _137
REMARK   56  A    between atoms: _137  and  _138
REMARK   57  A    between atoms: _138  and  _139
REMARK   58  A    between atoms: _139  and  _141
REMARK   59  A    between atoms: _141  and  MG_450
REMARK   60  A    between atoms: _142  and  _144
REMARK   61  A    between atoms: _144  and  _145
REMARK   62  A    between atoms: _144  and  _147
REMARK   63  A    between atoms: _147  and  _148
REMARK   64  A    between atoms: _153  and  _155
REMARK   65  A    between atoms: _155  and  _156
REMARK   66  A    between atoms: _155  and  _158
REMARK   67  A    between atoms: _158  and  _159
REMARK   68  A    between atoms: _159  and  _160
REMARK   69  A    between atoms: _162  and  _164
REMARK   70  A    between atoms: _164  and  _165
REMARK   71  A    between atoms: _164  and  _167
REMARK   72  A    between atoms: _167  and  _168
REMARK   73  A    between atoms: _173  and  _175
REMARK   74  A    between atoms: _175  and  _176
REMARK   75  A    between atoms: _175  and  _178
REMARK   76  A    between atoms: _178  and  _179
REMARK   77  A    between atoms: _179  and  _180
REMARK   78  A    between atoms: _180  and  _181
REMARK   79  A    between atoms: _181  and  MG_450
REMARK   80  A    between atoms: _183  and  _185
REMARK   81  A    between atoms: _185  and  _186
REMARK   82  A    between atoms: _185  and  _188
REMARK   83  A    between atoms: _188  and  _189
REMARK   84  A    between atoms: _189  and  _190
REMARK   85  A    between atoms: _193  and  _195
REMARK   86  A    between atoms: _195  and  _196
REMARK   87  A    between atoms: _195  and  _198
REMARK   88  A    between atoms: _198  and  _199
REMARK   89  A    between atoms: _199  and  _200
REMARK   90  A    between atoms: _202  and  _204
REMARK   91  A    between atoms: _204  and  _205
REMARK   92  A    between atoms: _204  and  _207
REMARK   93  A    between atoms: _207  and  _208
REMARK   94  A    between atoms: _213  and  _214
REMARK   95  A    between atoms: _216  and  _218
REMARK   96  A    between atoms: _218  and  _219
REMARK   97  A    between atoms: _218  and  _221
REMARK   98  A    between atoms: _221  and  _222
REMARK   99  A    between atoms: _222  and  _223
REMARK  100  A    between atoms: _223  and  _224
REMARK  101  A    between atoms: _224  and  _225
REMARK  102  A    between atoms: _229  and  _231
REMARK  103  A    between atoms: _231  and  _232
REMARK  104  A    between atoms: _231  and  _234
REMARK  105  A    between atoms: _236  and  _238
REMARK  106  A    between atoms: _238  and  _239
REMARK  107  A    between atoms: _238  and  _241
REMARK  108  A    between atoms: _241  and  _242
REMARK  109  A    between atoms: _242  and  _243
REMARK  110  A    between atoms: _246  and  _248
REMARK  111  A    between atoms: _248  and  _249
REMARK  112  A    between atoms: _248  and  _251
REMARK  113  A    between atoms: _251  and  _252
REMARK  114  A    between atoms: _257  and  _259
REMARK  115  A    between atoms: _259  and  _260
REMARK  116  A    between atoms: _263  and  _265
REMARK  117  A    between atoms: _265  and  _266
REMARK  118  A    between atoms: _265  and  _268
REMARK  119  A    between atoms: _268  and  _269
REMARK  120  A    between atoms: _269  and  _270
REMARK  121  A    between atoms: _272  and  _274
REMARK  122  A    between atoms: _274  and  _275
REMARK  123  A    between atoms: _274  and  _277
REMARK  124  A    between atoms: _277  and  _278
REMARK  125  A    between atoms: _288  and  _290
REMARK  126  A    between atoms: _290  and  _291
REMARK  127  A    between atoms: _290  and  _293
REMARK  128  A    between atoms: _293  and  _294
REMARK  129  A    between atoms: _297  and  _299
REMARK  130  A    between atoms: _299  and  _300
REMARK  131  A    between atoms: _299  and  _302
REMARK  132  A    between atoms: _302  and  _303
REMARK  133  A    between atoms: _303  and  _304
REMARK  134  A    between atoms: _309  and  _311
REMARK  135  A    between atoms: _311  and  _312
REMARK  136  A    between atoms: _311  and  _314
REMARK  137  A    between atoms: _314  and  _315
REMARK  138  A    between atoms: _318  and  _320
REMARK  139  A    between atoms: _320  and  _321
REMARK  140  A    between atoms: _320  and  _323
REMARK  141  A    between atoms: _323  and  _324
REMARK  142  A    between atoms: _324  and  _325
REMARK  143  A    between atoms: _330  and  _332
REMARK  144  A    between atoms: _332  and  _333
REMARK  145  A    between atoms: _332  and  _335
REMARK  146  A    between atoms: _335  and  _336
REMARK  147  A    between atoms: _342  and  _344
REMARK  148  A    between atoms: _344  and  _345
REMARK  149  A    between atoms: _344  and  _347
REMARK  150  A    between atoms: _349  and  _351
REMARK  151  A    between atoms: _351  and  _352
REMARK  152  A    between atoms: _351  and  _354
REMARK  153  A    between atoms: _354  and  _355
REMARK  154  A    between atoms: _355  and  _356
REMARK  155  A    between atoms: _358  and  _360
REMARK  156  A    between atoms: _360  and  _361
REMARK  157  A    between atoms: _360  and  _363
REMARK  158  A    between atoms: _363  and  _364
REMARK  159  A    between atoms: _369  and  _371
REMARK  160  A    between atoms: _371  and  _372
REMARK  161  A    between atoms: _374  and  _376
REMARK  162  A    between atoms: _376  and  _377
REMARK  163  A    between atoms: _376  and  _379
REMARK  164  A    between atoms: _382  and  _384
REMARK  165  A    between atoms: _384  and  _385
REMARK  166  A    between atoms: _384  and  _387
REMARK  167  A    between atoms: _387  and  _388
REMARK  168  A    between atoms: _391  and  _393
REMARK  169  A    between atoms: _393  and  _394
REMARK  170  A    between atoms: _393  and  _396
REMARK  171  A    between atoms: _396  and  _397
REMARK  172  A    between atoms: _399  and  _401
REMARK  173  A    between atoms: _401  and  _402
REMARK  174  A    between atoms: _401  and  _404
REMARK  175  A    between atoms: _404  and  _405
REMARK  176  A    between atoms: _415  and  _417
REMARK  177  A    between atoms: _417  and  _418
REMARK  178  A    between atoms: _417  and  _420
REMARK  179  A    between atoms: _420  and  _421
REMARK  180  A    between atoms: _423  and  _425
REMARK  181  A    between atoms: _425  and  _426
REMARK  182  A    between atoms: _425  and  _428
REMARK  183  A    between atoms: _428  and  _429
REMARK  184  A    between atoms: _429  and  _430
REMARK  185  A    between atoms: _433  and  _435
REMARK  186  A    between atoms: _435  and  _436
REMARK  187  A    between atoms: _435  and  _438
REMARK  188  A    between atoms: _438  and  _439
REMARK  189  A    between atoms: _439  and  _440
REMARK  190  A    between atoms: _440  and  _441
REMARK                            x       y       z     vdW  Elec       q    Type
REMARK                         _______ _______ _______ _____ _____    ______ ____
ROOT
ATOM      1  O   HOH     1      20.352  29.909  80.822  0.00  0.00    +0.000 OA
ENDROOT
TORSDOF 0
REMARK  Name = ../refined-set-2016/3muz/3muz_pocket.pdb
REMARK  190 active torsions:
REMARK  status: ('A' for Active; 'I' for Inactive)
REMARK    1  A    between atoms: _1  and  _3
REMARK    2  A    between atoms: _3  and  _4
REMARK    3  A    between atoms: _3  and  _6
REMARK    4  A    between atoms: _6  and  _7
REMARK    5  A    between atoms: _12  and  _13
REMARK    6  A    between atoms: _15  and  _17
REMARK    7  A    between atoms: _17  and  _18
REMARK    8  A    between atoms: _17  and  _20
REMARK    9  A    between atoms: _20  and  _21
REMARK   10  A    between atoms: _26  and  _28
REMARK   11  A    between atoms: _28  and  _29
REMARK   12  A    between atoms: _28  and  _31
REMARK   13  A    between atoms: _34  and  _36
REMARK   14  A    between atoms: _36  and  _37
REMARK   15  A    between atoms: _36  and  _39
REMARK   16  A    between atoms: _39  and  _40
REMARK   17  A    between atoms: _43  and  _45
REMARK   18  A    between atoms: _45  and  _46
REMARK   19  A    between atoms: _45  and  _48
REMARK   20  A    between atoms: _48  and  _49
REMARK   21  A    between atoms: _52  and  _54
REMARK   22  A    between atoms: _54  and  _55
REMARK   23  A    between atoms: _54  and  _57
REMARK   24  A    between atoms: _57  and  _58
REMARK   25  A    between atoms: _58  and  _59
REMARK   26  A    between atoms: _64  and  _66
REMARK   27  A    between atoms: _66  and  _67
REMARK   28  A    between atoms: _66  and  _69
REMARK   29  A    between atoms: _69  and  _70
REMARK   30  A    between atoms: _73  and  _75
REMARK   31  A    between atoms: _75  and  _76
REMARK   32  A    between atoms: _75  and  _78
REMARK   33  A    between atoms: _78  and  _79
REMARK   34  A    between atoms: _79  and  _80
REMARK   35  A    between atoms: _82  and  _84
REMARK   36  A    between atoms: _84  and  _85
REMARK   37  A    between atoms: _84  and  _87
REMARK   38  A    between atoms: _87  and  _88
REMARK   39  A    between atoms: _93  and  _95
REMARK   40  A    between atoms: _95  and  _96
REMARK   41  A    between atoms: _95  and  _98
REMARK   42  A    between atoms: _98  and  _99
REMARK   43  A    between atoms: _104  and  _106
REMARK   44  A    between atoms: _106  and  _107
REMARK   45  A    between atoms: _106  and  _109
REMARK   46  A    between atoms: _109  and  _110
REMARK   47  A    between atoms: _110  and  _111
REMARK   48  A    between atoms: _111  and  _112
REMARK   49  A    between atoms: _121  and  _123
REMARK   50  A    between atoms: _123  and  _124
REMARK   51  A    between atoms: _123  and  _126
REMARK   52  A    between atoms: _126  and  _127
REMARK   53  A    between atoms: _132  and  _134
REMARK   54  A    between atoms: _134  and  _135
REMARK   55  A    between atoms: _134  and  _137
REMARK   56  A    between atoms: _137  and  _138
REMARK   57  A    between atoms: _138  and  _139
REMARK   58  A    between atoms: _139  and  _141
REMARK   59  A    between atoms: _141  and  MG_450
REMARK   60  A    between atoms: _142  and  _144
REMARK   61  A    between atoms: _144  and  _145
REMARK   62  A    between atoms: _144  and  _147
REMARK   63  A    between atoms: _147  and  _148
REMARK   64  A    between atoms: _153  and  _155
REMARK   65  A    between atoms: _155  and  _156
REMARK   66  A    between atoms: _155  and  _158
REMARK   67  A    between atoms: _158  and  _159
REMARK   68  A    between atoms: _159  and  _160
REMARK   69  A    between atoms: _162  and  _164
REMARK   70  A    between atoms: _164  and  _165
REMARK   71  A    between atoms: _164  and  _167
REMARK   72  A    between atoms: _167  and  _168
REMARK   73  A    between atoms: _173  and  _175
REMARK   74  A    between atoms: _175  and  _176
REMARK   75  A    between atoms: _175  and  _178
REMARK   76  A    between atoms: _178  and  _179
REMARK   77  A    between atoms: _179  and  _180
REMARK   78  A    between atoms: _180  and  _181
REMARK   79  A    between atoms: _181  and  MG_450
REMARK   80  A    between atoms: _183  and  _185
REMARK   81  A    between atoms: _185  and  _186
REMARK   82  A    between atoms: _185  and  _188
REMARK   83  A    between atoms: _188  and  _189
REMARK   84  A    between atoms: _189  and  _190
REMARK   85  A    between atoms: _193  and  _195
REMARK   86  A    between atoms: _195  and  _196
REMARK   87  A    between atoms: _195  and  _198
REMARK   88  A    between atoms: _198  and  _199
REMARK   89  A    between atoms: _199  and  _200
REMARK   90  A    between atoms: _202  and  _204
REMARK   91  A    between atoms: _204  and  _205
REMARK   92  A    between atoms: _204  and  _207
REMARK   93  A    between atoms: _207  and  _208
REMARK   94  A    between atoms: _213  and  _214
REMARK   95  A    between atoms: _216  and  _218
REMARK   96  A    between atoms: _218  and  _219
REMARK   97  A    between atoms: _218  and  _221
REMARK   98  A    between atoms: _221  and  _222
REMARK   99  A    between atoms: _222  and  _223
REMARK  100  A    between atoms: _223  and  _224
REMARK  101  A    between atoms: _224  and  _225
REMARK  102  A    between atoms: _229  and  _231
REMARK  103  A    between atoms: _231  and  _232
REMARK  104  A    between atoms: _231  and  _234
REMARK  105  A    between atoms: _236  and  _238
REMARK  106  A    between atoms: _238  and  _239
REMARK  107  A    between atoms: _238  and  _241
REMARK  108  A    between atoms: _241  and  _242
REMARK  109  A    between atoms: _242  and  _243
REMARK  110  A    between atoms: _246  and  _248
REMARK  111  A    between atoms: _248  and  _249
REMARK  112  A    between atoms: _248  and  _251
REMARK  113  A    between atoms: _251  and  _252
REMARK  114  A    between atoms: _257  and  _259
REMARK  115  A    between atoms: _259  and  _260
REMARK  116  A    between atoms: _263  and  _265
REMARK  117  A    between atoms: _265  and  _266
REMARK  118  A    between atoms: _265  and  _268
REMARK  119  A    between atoms: _268  and  _269
REMARK  120  A    between atoms: _269  and  _270
REMARK  121  A    between atoms: _272  and  _274
REMARK  122  A    between atoms: _274  and  _275
REMARK  123  A    between atoms: _274  and  _277
REMARK  124  A    between atoms: _277  and  _278
REMARK  125  A    between atoms: _288  and  _290
REMARK  126  A    between atoms: _290  and  _291
REMARK  127  A    between atoms: _290  and  _293
REMARK  128  A    between atoms: _293  and  _294
REMARK  129  A    between atoms: _297  and  _299
REMARK  130  A    between atoms: _299  and  _300
REMARK  131  A    between atoms: _299  and  _302
REMARK  132  A    between atoms: _302  and  _303
REMARK  133  A    between atoms: _303  and  _304
REMARK  134  A    between atoms: _309  and  _311
REMARK  135  A    between atoms: _311  and  _312
REMARK  136  A    between atoms: _311  and  _314
REMARK  137  A    between atoms: _314  and  _315
REMARK  138  A    between atoms: _318  and  _320
REMARK  139  A    between atoms: _320  and  _321
REMARK  140  A    between atoms: _320  and  _323
REMARK  141  A    between atoms: _323  and  _324
REMARK  142  A    between atoms: _324  and  _325
REMARK  143  A    between atoms: _330  and  _332
REMARK  144  A    between atoms: _332  and  _333
REMARK  145  A    between atoms: _332  and  _335
REMARK  146  A    between atoms: _335  and  _336
REMARK  147  A    between atoms: _342  and  _344
REMARK  148  A    between atoms: _344  and  _345
REMARK  149  A    between atoms: _344  and  _347
REMARK  150  A    between atoms: _349  and  _351
REMARK  151  A    between atoms: _351  and  _352
REMARK  152  A    between atoms: _351  and  _354
REMARK  153  A    between atoms: _354  and  _355
REMARK  154  A    between atoms: _355  and  _356
REMARK  155  A    between atoms: _358  and  _360
REMARK  156  A    between atoms: _360  and  _361
REMARK  157  A    between atoms: _360  and  _363
REMARK  158  A    between atoms: _363  and  _364
REMARK  159  A    between atoms: _369  and  _371
REMARK  160  A    between atoms: _371  and  _372
REMARK  161  A    between atoms: _374  and  _376
REMARK  162  A    between atoms: _376  and  _377
REMARK  163  A    between atoms: _376  and  _379
REMARK  164  A    between atoms: _382  and  _384
REMARK  165  A    between atoms: _384  and  _385
REMARK  166  A    between atoms: _384  and  _387
REMARK  167  A    between atoms: _387  and  _388
REMARK  168  A    between atoms: _391  and  _393
REMARK  169  A    between atoms: _393  and  _394
REMARK  170  A    between atoms: _393  and  _396
REMARK  171  A    between atoms: _396  and  _397
REMARK  172  A    between atoms: _399  and  _401
REMARK  173  A    between atoms: _401  and  _402
REMARK  174  A    between atoms: _401  and  _404
REMARK  175  A    between atoms: _404  and  _405
REMARK  176  A    between atoms: _415  and  _417
REMARK  177  A    between atoms: _417  and  _418
REMARK  178  A    between atoms: _417  and  _420
REMARK  179  A    between atoms: _420  and  _421
REMARK  180  A    between atoms: _423  and  _425
REMARK  181  A    between atoms: _425  and  _426
REMARK  182  A    between atoms: _425  and  _428
REMARK  183  A    between atoms: _428  and  _429
REMARK  184  A    between atoms: _429  and  _430
REMARK  185  A    between atoms: _433  and  _435
REMARK  186  A    between atoms: _435  and  _436
REMARK  187  A    between atoms: _435  and  _438
REMARK  188  A    between atoms: _438  and  _439
REMARK  189  A    between atoms: _439  and  _440
REMARK  190  A    between atoms: _440  and  _441
REMARK                            x       y       z     vdW  Elec       q    Type
REMARK                         _______ _______ _______ _____ _____    ______ ____
ROOT
ATOM      1  O   HOH     1      21.697  24.995  81.992  0.00  0.00    +0.000 OA
ENDROOT
TORSDOF 0
REMARK  Name = ../refined-set-2016/3muz/3muz_pocket.pdb
REMARK  190 active torsions:
REMARK  status: ('A' for Active; 'I' for Inactive)
REMARK    1  A    between atoms: _1  and  _3
REMARK    2  A    between atoms: _3  and  _4
REMARK    3  A    between atoms: _3  and  _6
REMARK    4  A    between atoms: _6  and  _7
REMARK    5  A    between atoms: _12  and  _13
REMARK    6  A    between atoms: _15  and  _17
REMARK    7  A    between atoms: _17  and  _18
REMARK    8  A    between atoms: _17  and  _20
REMARK    9  A    between atoms: _20  and  _21
REMARK   10  A    between atoms: _26  and  _28
REMARK   11  A    between atoms: _28  and  _29
REMARK   12  A    between atoms: _28  and  _31
REMARK   13  A    between atoms: _34  and  _36
REMARK   14  A    between atoms: _36  and  _37
REMARK   15  A    between atoms: _36  and  _39
REMARK   16  A    between atoms: _39  and  _40
REMARK   17  A    between atoms: _43  and  _45
REMARK   18  A    between atoms: _45  and  _46
REMARK   19  A    between atoms: _45  and  _48
REMARK   20  A    between atoms: _48  and  _49
REMARK   21  A    between atoms: _52  and  _54
REMARK   22  A    between atoms: _54  and  _55
REMARK   23  A    between atoms: _54  and  _57
REMARK   24  A    between atoms: _57  and  _58
REMARK   25  A    between atoms: _58  and  _59
REMARK   26  A    between atoms: _64  and  _66
REMARK   27  A    between atoms: _66  and  _67
REMARK   28  A    between atoms: _66  and  _69
REMARK   29  A    between atoms: _69  and  _70
REMARK   30  A    between atoms: _73  and  _75
REMARK   31  A    between atoms: _75  and  _76
REMARK   32  A    between atoms: _75  and  _78
REMARK   33  A    between atoms: _78  and  _79
REMARK   34  A    between atoms: _79  and  _80
REMARK   35  A    between atoms: _82  and  _84
REMARK   36  A    between atoms: _84  and  _85
REMARK   37  A    between atoms: _84  and  _87
REMARK   38  A    between atoms: _87  and  _88
REMARK   39  A    between atoms: _93  and  _95
REMARK   40  A    between atoms: _95  and  _96
REMARK   41  A    between atoms: _95  and  _98
REMARK   42  A    between atoms: _98  and  _99
REMARK   43  A    between atoms: _104  and  _106
REMARK   44  A    between atoms: _106  and  _107
REMARK   45  A    between atoms: _106  and  _109
REMARK   46  A    between atoms: _109  and  _110
REMARK   47  A    between atoms: _110  and  _111
REMARK   48  A    between atoms: _111  and  _112
REMARK   49  A    between atoms: _121  and  _123
REMARK   50  A    between atoms: _123  and  _124
REMARK   51  A    between atoms: _123  and  _126
REMARK   52  A    between atoms: _126  and  _127
REMARK   53  A    between atoms: _132  and  _134
REMARK   54  A    between atoms: _134  and  _135
REMARK   55  A    between atoms: _134  and  _137
REMARK   56  A    between atoms: _137  and  _138
REMARK   57  A    between atoms: _138  and  _139
REMARK   58  A    between atoms: _139  and  _141
REMARK   59  A    between atoms: _141  and  MG_450
REMARK   60  A    between atoms: _142  and  _144
REMARK   61  A    between atoms: _144  and  _145
REMARK   62  A    between atoms: _144  and  _147
REMARK   63  A    between atoms: _147  and  _148
REMARK   64  A    between atoms: _153  and  _155
REMARK   65  A    between atoms: _155  and  _156
REMARK   66  A    between atoms: _155  and  _158
REMARK   67  A    between atoms: _158  and  _159
REMARK   68  A    between atoms: _159  and  _160
REMARK   69  A    between atoms: _162  and  _164
REMARK   70  A    between atoms: _164  and  _165
REMARK   71  A    between atoms: _164  and  _167
REMARK   72  A    between atoms: _167  and  _168
REMARK   73  A    between atoms: _173  and  _175
REMARK   74  A    between atoms: _175  and  _176
REMARK   75  A    between atoms: _175  and  _178
REMARK   76  A    between atoms: _178  and  _179
REMARK   77  A    between atoms: _179  and  _180
REMARK   78  A    between atoms: _180  and  _181
REMARK   79  A    between atoms: _181  and  MG_450
REMARK   80  A    between atoms: _183  and  _185
REMARK   81  A    between atoms: _185  and  _186
REMARK   82  A    between atoms: _185  and  _188
REMARK   83  A    between atoms: _188  and  _189
REMARK   84  A    between atoms: _189  and  _190
REMARK   85  A    between atoms: _193  and  _195
REMARK   86  A    between atoms: _195  and  _196
REMARK   87  A    between atoms: _195  and  _198
REMARK   88  A    between atoms: _198  and  _199
REMARK   89  A    between atoms: _199  and  _200
REMARK   90  A    between atoms: _202  and  _204
REMARK   91  A    between atoms: _204  and  _205
REMARK   92  A    between atoms: _204  and  _207
REMARK   93  A    between atoms: _207  and  _208
REMARK   94  A    between atoms: _213  and  _214
REMARK   95  A    between atoms: _216  and  _218
REMARK   96  A    between atoms: _218  and  _219
REMARK   97  A    between atoms: _218  and  _221
REMARK   98  A    between atoms: _221  and  _222
REMARK   99  A    between atoms: _222  and  _223
REMARK  100  A    between atoms: _223  and  _224
REMARK  101  A    between atoms: _224  and  _225
REMARK  102  A    between atoms: _229  and  _231
REMARK  103  A    between atoms: _231  and  _232
REMARK  104  A    between atoms: _231  and  _234
REMARK  105  A    between atoms: _236  and  _238
REMARK  106  A    between atoms: _238  and  _239
REMARK  107  A    between atoms: _238  and  _241
REMARK  108  A    between atoms: _241  and  _242
REMARK  109  A    between atoms: _242  and  _243
REMARK  110  A    between atoms: _246  and  _248
REMARK  111  A    between atoms: _248  and  _249
REMARK  112  A    between atoms: _248  and  _251
REMARK  113  A    between atoms: _251  and  _252
REMARK  114  A    between atoms: _257  and  _259
REMARK  115  A    between atoms: _259  and  _260
REMARK  116  A    between atoms: _263  and  _265
REMARK  117  A    between atoms: _265  and  _266
REMARK  118  A    between atoms: _265  and  _268
REMARK  119  A    between atoms: _268  and  _269
REMARK  120  A    between atoms: _269  and  _270
REMARK  121  A    between atoms: _272  and  _274
REMARK  122  A    between atoms: _274  and  _275
REMARK  123  A    between atoms: _274  and  _277
REMARK  124  A    between atoms: _277  and  _278
REMARK  125  A    between atoms: _288  and  _290
REMARK  126  A    between atoms: _290  and  _291
REMARK  127  A    between atoms: _290  and  _293
REMARK  128  A    between atoms: _293  and  _294
REMARK  129  A    between atoms: _297  and  _299
REMARK  130  A    between atoms: _299  and  _300
REMARK  131  A    between atoms: _299  and  _302
REMARK  132  A    between atoms: _302  and  _303
REMARK  133  A    between atoms: _303  and  _304
REMARK  134  A    between atoms: _309  and  _311
REMARK  135  A    between atoms: _311  and  _312
REMARK  136  A    between atoms: _311  and  _314
REMARK  137  A    between atoms: _314  and  _315
REMARK  138  A    between atoms: _318  and  _320
REMARK  139  A    between atoms: _320  and  _321
REMARK  140  A    between atoms: _320  and  _323
REMARK  141  A    between atoms: _323  and  _324
REMARK  142  A    between atoms: _324  and  _325
REMARK  143  A    between atoms: _330  and  _332
REMARK  144  A    between atoms: _332  and  _333
REMARK  145  A    between atoms: _332  and  _335
REMARK  146  A    between atoms: _335  and  _336
REMARK  147  A    between atoms: _342  and  _344
REMARK  148  A    between atoms: _344  and  _345
REMARK  149  A    between atoms: _344  and  _347
REMARK  150  A    between atoms: _349  and  _351
REMARK  151  A    between atoms: _351  and  _352
REMARK  152  A    between atoms: _351  and  _354
REMARK  153  A    between atoms: _354  and  _355
REMARK  154  A    between atoms: _355  and  _356
REMARK  155  A    between atoms: _358  and  _360
REMARK  156  A    between atoms: _360  and  _361
REMARK  157  A    between atoms: _360  and  _363
REMARK  158  A    between atoms: _363  and  _364
REMARK  159  A    between atoms: _369  and  _371
REMARK  160  A    between atoms: _371  and  _372
REMARK  161  A    between atoms: _374  and  _376
REMARK  162  A    between atoms: _376  and  _377
REMARK  163  A    between atoms: _376  and  _379
REMARK  164  A    between atoms: _382  and  _384
REMARK  165  A    between atoms: _384  and  _385
REMARK  166  A    between atoms: _384  and  _387
REMARK  167  A    between atoms: _387  and  _388
REMARK  168  A    between atoms: _391  and  _393
REMARK  169  A    between atoms: _393  and  _394
REMARK  170  A    between atoms: _393  and  _396
REMARK  171  A    between atoms: _396  and  _397
REMARK  172  A    between atoms: _399  and  _401
REMARK  173  A    between atoms: _401  and  _402
REMARK  174  A    between atoms: _401  and  _404
REMARK  175  A    between atoms: _404  and  _405
REMARK  176  A    between atoms: _415  and  _417
REMARK  177  A    between atoms: _417  and  _418
REMARK  178  A    between atoms: _417  and  _420
REMARK  179  A    between atoms: _420  and  _421
REMARK  180  A    between atoms: _423  and  _425
REMARK  181  A    between atoms: _425  and  _426
REMARK  182  A    between atoms: _425  and  _428
REMARK  183  A    between atoms: _428  and  _429
REMARK  184  A    between atoms: _429  and  _430
REMARK  185  A    between atoms: _433  and  _435
REMARK  186  A    between atoms: _435  and  _436
REMARK  187  A    between atoms: _435  and  _438
REMARK  188  A    between atoms: _438  and  _439
REMARK  189  A    between atoms: _439  and  _440
REMARK  190  A    between atoms: _440  and  _441
REMARK                            x       y       z     vdW  Elec       q    Type
REMARK                         _______ _______ _______ _____ _____    ______ ____
ROOT
ATOM      1  O   HOH     1      13.891  22.821  81.708  0.00  0.00    +0.000 OA
ENDROOT
TORSDOF 0
