REMARK  Name = ../refined-set-2016/1b3h/1b3h_pocket.pdb
REMARK  269 active torsions:
REMARK  status: ('A' for Active; 'I' for Inactive)
REMARK    1  A    between atoms: _1  and  _3
REMARK    2  A    between atoms: _3  and  _4
REMARK    3  A    between atoms: _3  and  _6
REMARK    4  A    between atoms: _6  and  _7
REMARK    5  A    between atoms: _12  and  _14
REMARK    6  A    between atoms: _14  and  _15
REMARK    7  A    between atoms: _17  and  _19
REMARK    8  A    between atoms: _19  and  _20
REMARK    9  A    between atoms: _19  and  _22
REMARK   10  A    between atoms: _22  and  _23
REMARK   11  A    between atoms: _25  and  _27
REMARK   12  A    between atoms: _27  and  _28
REMARK   13  A    between atoms: _27  and  _30
REMARK   14  A    between atoms: _30  and  _31
REMARK   15  A    between atoms: _31  and  _32
REMARK   16  A    between atoms: _37  and  _39
REMARK   17  A    between atoms: _39  and  _40
REMARK   18  A    between atoms: _39  and  _42
REMARK   19  A    between atoms: _42  and  _43
REMARK   20  A    between atoms: _46  and  _48
REMARK   21  A    between atoms: _48  and  _49
REMARK   22  A    between atoms: _48  and  _51
REMARK   23  A    between atoms: _51  and  _52
REMARK   24  A    between atoms: _52  and  _53
REMARK   25  A    between atoms: _56  and  _58
REMARK   26  A    between atoms: _58  and  _59
REMARK   27  A    between atoms: _61  and  _63
REMARK   28  A    between atoms: _63  and  _64
REMARK   29  A    between atoms: _63  and  _66
REMARK   30  A    between atoms: _70  and  _71
REMARK   31  A    between atoms: _76  and  _78
REMARK   32  A    between atoms: _78  and  _79
REMARK   33  A    between atoms: _78  and  _81
REMARK   34  A    between atoms: _81  and  _82
REMARK   35  A    between atoms: _82  and  _83
REMARK   36  A    between atoms: _86  and  _88
REMARK   37  A    between atoms: _88  and  _89
REMARK   38  A    between atoms: _88  and  _91
REMARK   39  A    between atoms: _91  and  _92
REMARK   40  A    between atoms: _94  and  _96
REMARK   41  A    between atoms: _96  and  _97
REMARK   42  A    between atoms: _96  and  _99
REMARK   43  A    between atoms: _99  and  _100
REMARK   44  A    between atoms: _105  and  _107
REMARK   45  A    between atoms: _107  and  _108
REMARK   46  A    between atoms: _107  and  _110
REMARK   47  A    between atoms: _110  and  _111
REMARK   48  A    between atoms: _111  and  _112
REMARK   49  A    between atoms: _112  and  _113
REMARK   50  A    between atoms: _123  and  _124
REMARK   51  A    between atoms: _129  and  _131
REMARK   52  A    between atoms: _131  and  _132
REMARK   53  A    between atoms: _131  and  _134
REMARK   54  A    between atoms: _134  and  _135
REMARK   55  A    between atoms: _140  and  _141
REMARK   56  A    between atoms: _143  and  _145
REMARK   57  A    between atoms: _145  and  _146
REMARK   58  A    between atoms: _145  and  _148
REMARK   59  A    between atoms: _148  and  _149
REMARK   60  A    between atoms: _154  and  _155
REMARK   61  A    between atoms: _157  and  _159
REMARK   62  A    between atoms: _159  and  _160
REMARK   63  A    between atoms: _159  and  _162
REMARK   64  A    between atoms: _162  and  _163
REMARK   65  A    between atoms: _168  and  _169
REMARK   66  A    between atoms: _171  and  _173
REMARK   67  A    between atoms: _173  and  _174
REMARK   68  A    between atoms: _173  and  _176
REMARK   69  A    between atoms: _179  and  _181
REMARK   70  A    between atoms: _181  and  _182
REMARK   71  A    between atoms: _181  and  _184
REMARK   72  A    between atoms: _184  and  _185
REMARK   73  A    between atoms: _191  and  _192
REMARK   74  A    between atoms: _197  and  _199
REMARK   75  A    between atoms: _199  and  _200
REMARK   76  A    between atoms: _199  and  _202
REMARK   77  A    between atoms: _202  and  _203
REMARK   78  A    between atoms: _205  and  _207
REMARK   79  A    between atoms: _207  and  _208
REMARK   80  A    between atoms: _207  and  _210
REMARK   81  A    between atoms: _210  and  _211
REMARK   82  A    between atoms: _216  and  _217
REMARK   83  A    between atoms: _219  and  _221
REMARK   84  A    between atoms: _221  and  _222
REMARK   85  A    between atoms: _221  and  _224
REMARK   86  A    between atoms: _224  and  _225
REMARK   87  A    between atoms: _230  and  _232
REMARK   88  A    between atoms: _232  and  _233
REMARK   89  A    between atoms: _232  and  _235
REMARK   90  A    between atoms: _235  and  _236
REMARK   91  A    between atoms: _241  and  _243
REMARK   92  A    between atoms: _243  and  _244
REMARK   93  A    between atoms: _243  and  _246
REMARK   94  A    between atoms: _246  and  _247
REMARK   95  A    between atoms: _247  and  _248
REMARK   96  A    between atoms: _250  and  _252
REMARK   97  A    between atoms: _252  and  _253
REMARK   98  A    between atoms: _252  and  _255
REMARK   99  A    between atoms: _255  and  _256
REMARK  100  A    between atoms: _261  and  _262
REMARK  101  A    between atoms: _264  and  _266
REMARK  102  A    between atoms: _266  and  _267
REMARK  103  A    between atoms: _266  and  _269
REMARK  104  A    between atoms: _269  and  _270
REMARK  105  A    between atoms: _273  and  _275
REMARK  106  A    between atoms: _275  and  _276
REMARK  107  A    between atoms: _275  and  _278
REMARK  108  A    between atoms: _278  and  _279
REMARK  109  A    between atoms: _279  and  _496
REMARK  110  A    between atoms: _280  and  _282
REMARK  111  A    between atoms: _282  and  _283
REMARK  112  A    between atoms: _282  and  _285
REMARK  113  A    between atoms: _285  and  _286
REMARK  114  A    between atoms: _289  and  _291
REMARK  115  A    between atoms: _291  and  _292
REMARK  116  A    between atoms: _291  and  _294
REMARK  117  A    between atoms: _294  and  _295
REMARK  118  A    between atoms: _300  and  _301
REMARK  119  A    between atoms: _303  and  _305
REMARK  120  A    between atoms: _305  and  _306
REMARK  121  A    between atoms: _305  and  _308
REMARK  122  A    between atoms: _308  and  _309
REMARK  123  A    between atoms: _314  and  _315
REMARK  124  A    between atoms: _317  and  _319
REMARK  125  A    between atoms: _319  and  _320
REMARK  126  A    between atoms: _319  and  _322
REMARK  127  A    between atoms: _322  and  _323
REMARK  128  A    between atoms: _323  and  _324
REMARK  129  A    between atoms: _327  and  _329
REMARK  130  A    between atoms: _329  and  _330
REMARK  131  A    between atoms: _329  and  _332
REMARK  132  A    between atoms: _332  and  _333
REMARK  133  A    between atoms: _338  and  _339
REMARK  134  A    between atoms: _341  and  _343
REMARK  135  A    between atoms: _343  and  _344
REMARK  136  A    between atoms: _343  and  _346
REMARK  137  A    between atoms: _346  and  _347
REMARK  138  A    between atoms: _352  and  _354
REMARK  139  A    between atoms: _354  and  _355
REMARK  140  A    between atoms: _354  and  _357
REMARK  141  A    between atoms: _357  and  _358
REMARK  142  A    between atoms: _361  and  _363
REMARK  143  A    between atoms: _363  and  _364
REMARK  144  A    between atoms: _363  and  _366
REMARK  145  A    between atoms: _366  and  _367
REMARK  146  A    between atoms: _372  and  _374
REMARK  147  A    between atoms: _374  and  _375
REMARK  148  A    between atoms: _374  and  _377
REMARK  149  A    between atoms: _377  and  _378
REMARK  150  A    between atoms: _388  and  _390
REMARK  151  A    between atoms: _390  and  _391
REMARK  152  A    between atoms: _390  and  _393
REMARK  153  A    between atoms: _393  and  _394
REMARK  154  A    between atoms: _400  and  _402
REMARK  155  A    between atoms: _402  and  _403
REMARK  156  A    between atoms: _402  and  _405
REMARK  157  A    between atoms: _405  and  _406
REMARK  158  A    between atoms: _409  and  _411
REMARK  159  A    between atoms: _411  and  _412
REMARK  160  A    between atoms: _411  and  _414
REMARK  161  A    between atoms: _414  and  _415
REMARK  162  A    between atoms: _418  and  _420
REMARK  163  A    between atoms: _420  and  _421
REMARK  164  A    between atoms: _420  and  _423
REMARK  165  A    between atoms: _423  and  _424
REMARK  166  A    between atoms: _424  and  _425
REMARK  167  A    between atoms: _425  and  _426
REMARK  168  A    between atoms: _435  and  _437
REMARK  169  A    between atoms: _437  and  _438
REMARK  170  A    between atoms: _437  and  _440
REMARK  171  A    between atoms: _440  and  _441
REMARK  172  A    between atoms: _446  and  _448
REMARK  173  A    between atoms: _448  and  _449
REMARK  174  A    between atoms: _448  and  _451
REMARK  175  A    between atoms: _451  and  _452
REMARK  176  A    between atoms: _452  and  _453
REMARK  177  A    between atoms: _453  and  _454
REMARK  178  A    between atoms: _463  and  _465
REMARK  179  A    between atoms: _465  and  _466
REMARK  180  A    between atoms: _469  and  _471
REMARK  181  A    between atoms: _471  and  _472
REMARK  182  A    between atoms: _474  and  _476
REMARK  183  A    between atoms: _476  and  _477
REMARK  184  A    between atoms: _476  and  _479
REMARK  185  A    between atoms: _479  and  _480
REMARK  186  A    between atoms: _490  and  _492
REMARK  187  A    between atoms: _492  and  _493
REMARK  188  A    between atoms: _492  and  _495
REMARK  189  A    between atoms: _495  and  _496
REMARK  190  A    between atoms: _497  and  _499
REMARK  191  A    between atoms: _499  and  _500
REMARK  192  A    between atoms: _503  and  _505
REMARK  193  A    between atoms: _505  and  _506
REMARK  194  A    between atoms: _505  and  _508
REMARK  195  A    between atoms: _508  and  _509
REMARK  196  A    between atoms: _512  and  _514
REMARK  197  A    between atoms: _514  and  _515
REMARK  198  A    between atoms: _514  and  _517
REMARK  199  A    between atoms: _517  and  _518
REMARK  200  A    between atoms: _523  and  _524
REMARK  201  A    between atoms: _526  and  _528
REMARK  202  A    between atoms: _528  and  _529
REMARK  203  A    between atoms: _528  and  _531
REMARK  204  A    between atoms: _531  and  _532
REMARK  205  A    between atoms: _534  and  _536
REMARK  206  A    between atoms: _536  and  _537
REMARK  207  A    between atoms: _536  and  _539
REMARK  208  A    between atoms: _539  and  _540
REMARK  209  A    between atoms: _546  and  _548
REMARK  210  A    between atoms: _548  and  _549
REMARK  211  A    between atoms: _548  and  _551
REMARK  212  A    between atoms: _551  and  _552
REMARK  213  A    between atoms: _555  and  _557
REMARK  214  A    between atoms: _557  and  _558
REMARK  215  A    between atoms: _557  and  _560
REMARK  216  A    between atoms: _560  and  _561
REMARK  217  A    between atoms: _563  and  _565
REMARK  218  A    between atoms: _565  and  _566
REMARK  219  A    between atoms: _565  and  _568
REMARK  220  A    between atoms: _568  and  _569
REMARK  221  A    between atoms: _574  and  _576
REMARK  222  A    between atoms: _576  and  _577
REMARK  223  A    between atoms: _576  and  _579
REMARK  224  A    between atoms: _579  and  _580
REMARK  225  A    between atoms: _585  and  _587
REMARK  226  A    between atoms: _587  and  _588
REMARK  227  A    between atoms: _587  and  _590
REMARK  228  A    between atoms: _590  and  _591
REMARK  229  A    between atoms: _594  and  _596
REMARK  230  A    between atoms: _596  and  _597
REMARK  231  A    between atoms: _600  and  _602
REMARK  232  A    between atoms: _602  and  _603
REMARK  233  A    between atoms: _602  and  _605
REMARK  234  A    between atoms: _605  and  _606
REMARK  235  A    between atoms: _611  and  _612
REMARK  236  A    between atoms: _614  and  _616
REMARK  237  A    between atoms: _616  and  _617
REMARK  238  A    between atoms: _616  and  _619
REMARK  239  A    between atoms: _619  and  _620
REMARK  240  A    between atoms: _625  and  _626
REMARK  241  A    between atoms: _628  and  _630
REMARK  242  A    between atoms: _630  and  _631
REMARK  243  A    between atoms: _630  and  _633
REMARK  244  A    between atoms: _636  and  _638
REMARK  245  A    between atoms: _638  and  _639
REMARK  246  A    between atoms: _638  and  _641
REMARK  247  A    between atoms: _641  and  _642
REMARK  248  A    between atoms: _647  and  _649
REMARK  249  A    between atoms: _649  and  _650
REMARK  250  A    between atoms: _653  and  _655
REMARK  251  A    between atoms: _655  and  _656
REMARK  252  A    between atoms: _655  and  _658
REMARK  253  A    between atoms: _658  and  _659
REMARK  254  A    between atoms: _659  and  _660
REMARK  255  A    between atoms: _660  and  _661
REMARK  256  A    between atoms: _670  and  _672
REMARK  257  A    between atoms: _672  and  _673
REMARK  258  A    between atoms: _672  and  _675
REMARK  259  A    between atoms: _675  and  _676
REMARK  260  A    between atoms: _679  and  _681
REMARK  261  A    between atoms: _681  and  _682
REMARK  262  A    between atoms: _681  and  _684
REMARK  263  A    between atoms: _684  and  _685
REMARK  264  A    between atoms: _688  and  _690
REMARK  265  A    between atoms: _690  and  _691
REMARK  266  A    between atoms: _690  and  _693
REMARK  267  A    between atoms: _693  and  _694
REMARK  268  A    between atoms: _724  and  _725
REMARK  269  A    between atoms: _725  and  _731
REMARK                            x       y       z     vdW  Elec       q    Type
REMARK                         _______ _______ _______ _____ _____    ______ ____
ROOT
ATOM      1  C   ASN A   1      -3.294  23.464   6.644  0.00  0.00    +0.239 C 
ATOM      2  O   ASN A   1      -2.239  23.673   7.269  0.00  0.00    -0.274 OA
ATOM      3  N   GLY A   2      -4.460  23.771   7.158  0.00  0.00    -0.296 N 
ATOM      4  H   GLY A   2      -5.317  23.718   6.571  0.00  0.00    +0.150 HD
ENDROOT
BRANCH   1   5
ATOM      5  CA  ASN A   1      -3.250  22.883   5.236  0.00  0.00    +0.154 C 
BRANCH   5   6
ATOM      6  N   ASN A   1      -4.460  23.104   4.457  0.00  0.00    -0.238 NA
ATOM      7  H   ASN A   1      -4.732  24.085   4.244  0.00  0.00    +0.142 HD
ENDBRANCH   5   6
BRANCH   5   8
ATOM      8  CB  ASN A   1      -2.099  23.572   4.459  0.00  0.00    +0.111 C 
BRANCH   8   9
ATOM      9  CG  ASN A   1      -0.734  23.038   4.846  0.00  0.00    +0.221 C 
ATOM     10  OD1 ASN A   1      -0.592  21.813   5.041  0.00  0.00    -0.275 OA
ATOM     11  ND2 ASN A   1       0.252  23.917   4.944  0.00  0.00    -0.329 N 
ATOM     12 HD21 ASN A   1       1.209  23.599   5.196  0.00  0.00    +0.145 HD
ATOM     13 HD22 ASN A   1       0.069  24.926   4.769  0.00  0.00    +0.145 HD
ENDBRANCH   8   9
ENDBRANCH   5   8
ENDBRANCH   1   5
BRANCH   3  14
ATOM     14  CA  GLY A   2      -4.557  24.193   8.572  0.00  0.00    +0.176 C 
BRANCH  14  15
ATOM     15  C   GLY A   2      -4.277  25.633   8.868  0.00  0.00    +0.243 C 
ATOM     16  O   GLY A   2      -4.986  26.221   9.683  0.00  0.00    -0.273 OA
ATOM     17  N   SER A   3      -3.244  26.268   8.372  0.00  0.00    -0.296 N 
ATOM     18  H   SER A   3      -2.624  25.738   7.727  0.00  0.00    +0.150 HD
BRANCH  17  19
ATOM     19  CA  SER A   3      -2.894  27.642   8.646  0.00  0.00    +0.166 C 
BRANCH  19  20
ATOM     20  C   SER A   3      -1.784  28.086   7.690  0.00  0.00    +0.229 C 
ATOM     21  O   SER A   3      -1.336  27.263   6.883  0.00  0.00    -0.286 OA
ENDBRANCH  19  20
BRANCH  19  22
ATOM     22  CB  SER A   3      -2.323  27.730  10.100  0.00  0.00    +0.165 C 
BRANCH  22  23
ATOM     23  OG  SER A   3      -1.461  26.563  10.191  0.00  0.00    -0.380 OA
ATOM     24  H   SER A   3      -1.046  26.530  11.089  0.00  0.00    +0.211 HD
ENDBRANCH  22  23
ENDBRANCH  19  22
ENDBRANCH  17  19
ENDBRANCH  14  15
ENDBRANCH   3  14
TORSDOF 10
REMARK  Name = ../refined-set-2016/1b3h/1b3h_pocket.pdb
REMARK  269 active torsions:
REMARK  status: ('A' for Active; 'I' for Inactive)
REMARK    1  A    between atoms: _1  and  _3
REMARK    2  A    between atoms: _3  and  _4
REMARK    3  A    between atoms: _3  and  _6
REMARK    4  A    between atoms: _6  and  _7
REMARK    5  A    between atoms: _12  and  _14
REMARK    6  A    between atoms: _14  and  _15
REMARK    7  A    between atoms: _17  and  _19
REMARK    8  A    between atoms: _19  and  _20
REMARK    9  A    between atoms: _19  and  _22
REMARK   10  A    between atoms: _22  and  _23
REMARK   11  A    between atoms: _25  and  _27
REMARK   12  A    between atoms: _27  and  _28
REMARK   13  A    between atoms: _27  and  _30
REMARK   14  A    between atoms: _30  and  _31
REMARK   15  A    between atoms: _31  and  _32
REMARK   16  A    between atoms: _37  and  _39
REMARK   17  A    between atoms: _39  and  _40
REMARK   18  A    between atoms: _39  and  _42
REMARK   19  A    between atoms: _42  and  _43
REMARK   20  A    between atoms: _46  and  _48
REMARK   21  A    between atoms: _48  and  _49
REMARK   22  A    between atoms: _48  and  _51
REMARK   23  A    between atoms: _51  and  _52
REMARK   24  A    between atoms: _52  and  _53
REMARK   25  A    between atoms: _56  and  _58
REMARK   26  A    between atoms: _58  and  _59
REMARK   27  A    between atoms: _61  and  _63
REMARK   28  A    between atoms: _63  and  _64
REMARK   29  A    between atoms: _63  and  _66
REMARK   30  A    between atoms: _70  and  _71
REMARK   31  A    between atoms: _76  and  _78
REMARK   32  A    between atoms: _78  and  _79
REMARK   33  A    between atoms: _78  and  _81
REMARK   34  A    between atoms: _81  and  _82
REMARK   35  A    between atoms: _82  and  _83
REMARK   36  A    between atoms: _86  and  _88
REMARK   37  A    between atoms: _88  and  _89
REMARK   38  A    between atoms: _88  and  _91
REMARK   39  A    between atoms: _91  and  _92
REMARK   40  A    between atoms: _94  and  _96
REMARK   41  A    between atoms: _96  and  _97
REMARK   42  A    between atoms: _96  and  _99
REMARK   43  A    between atoms: _99  and  _100
REMARK   44  A    between atoms: _105  and  _107
REMARK   45  A    between atoms: _107  and  _108
REMARK   46  A    between atoms: _107  and  _110
REMARK   47  A    between atoms: _110  and  _111
REMARK   48  A    between atoms: _111  and  _112
REMARK   49  A    between atoms: _112  and  _113
REMARK   50  A    between atoms: _123  and  _124
REMARK   51  A    between atoms: _129  and  _131
REMARK   52  A    between atoms: _131  and  _132
REMARK   53  A    between atoms: _131  and  _134
REMARK   54  A    between atoms: _134  and  _135
REMARK   55  A    between atoms: _140  and  _141
REMARK   56  A    between atoms: _143  and  _145
REMARK   57  A    between atoms: _145  and  _146
REMARK   58  A    between atoms: _145  and  _148
REMARK   59  A    between atoms: _148  and  _149
REMARK   60  A    between atoms: _154  and  _155
REMARK   61  A    between atoms: _157  and  _159
REMARK   62  A    between atoms: _159  and  _160
REMARK   63  A    between atoms: _159  and  _162
REMARK   64  A    between atoms: _162  and  _163
REMARK   65  A    between atoms: _168  and  _169
REMARK   66  A    between atoms: _171  and  _173
REMARK   67  A    between atoms: _173  and  _174
REMARK   68  A    between atoms: _173  and  _176
REMARK   69  A    between atoms: _179  and  _181
REMARK   70  A    between atoms: _181  and  _182
REMARK   71  A    between atoms: _181  and  _184
REMARK   72  A    between atoms: _184  and  _185
REMARK   73  A    between atoms: _191  and  _192
REMARK   74  A    between atoms: _197  and  _199
REMARK   75  A    between atoms: _199  and  _200
REMARK   76  A    between atoms: _199  and  _202
REMARK   77  A    between atoms: _202  and  _203
REMARK   78  A    between atoms: _205  and  _207
REMARK   79  A    between atoms: _207  and  _208
REMARK   80  A    between atoms: _207  and  _210
REMARK   81  A    between atoms: _210  and  _211
REMARK   82  A    between atoms: _216  and  _217
REMARK   83  A    between atoms: _219  and  _221
REMARK   84  A    between atoms: _221  and  _222
REMARK   85  A    between atoms: _221  and  _224
REMARK   86  A    between atoms: _224  and  _225
REMARK   87  A    between atoms: _230  and  _232
REMARK   88  A    between atoms: _232  and  _233
REMARK   89  A    between atoms: _232  and  _235
REMARK   90  A    between atoms: _235  and  _236
REMARK   91  A    between atoms: _241  and  _243
REMARK   92  A    between atoms: _243  and  _244
REMARK   93  A    between atoms: _243  and  _246
REMARK   94  A    between atoms: _246  and  _247
REMARK   95  A    between atoms: _247  and  _248
REMARK   96  A    between atoms: _250  and  _252
REMARK   97  A    between atoms: _252  and  _253
REMARK   98  A    between atoms: _252  and  _255
REMARK   99  A    between atoms: _255  and  _256
REMARK  100  A    between atoms: _261  and  _262
REMARK  101  A    between atoms: _264  and  _266
REMARK  102  A    between atoms: _266  and  _267
REMARK  103  A    between atoms: _266  and  _269
REMARK  104  A    between atoms: _269  and  _270
REMARK  105  A    between atoms: _273  and  _275
REMARK  106  A    between atoms: _275  and  _276
REMARK  107  A    between atoms: _275  and  _278
REMARK  108  A    between atoms: _278  and  _279
REMARK  109  A    between atoms: _279  and  _496
REMARK  110  A    between atoms: _280  and  _282
REMARK  111  A    between atoms: _282  and  _283
REMARK  112  A    between atoms: _282  and  _285
REMARK  113  A    between atoms: _285  and  _286
REMARK  114  A    between atoms: _289  and  _291
REMARK  115  A    between atoms: _291  and  _292
REMARK  116  A    between atoms: _291  and  _294
REMARK  117  A    between atoms: _294  and  _295
REMARK  118  A    between atoms: _300  and  _301
REMARK  119  A    between atoms: _303  and  _305
REMARK  120  A    between atoms: _305  and  _306
REMARK  121  A    between atoms: _305  and  _308
REMARK  122  A    between atoms: _308  and  _309
REMARK  123  A    between atoms: _314  and  _315
REMARK  124  A    between atoms: _317  and  _319
REMARK  125  A    between atoms: _319  and  _320
REMARK  126  A    between atoms: _319  and  _322
REMARK  127  A    between atoms: _322  and  _323
REMARK  128  A    between atoms: _323  and  _324
REMARK  129  A    between atoms: _327  and  _329
REMARK  130  A    between atoms: _329  and  _330
REMARK  131  A    between atoms: _329  and  _332
REMARK  132  A    between atoms: _332  and  _333
REMARK  133  A    between atoms: _338  and  _339
REMARK  134  A    between atoms: _341  and  _343
REMARK  135  A    between atoms: _343  and  _344
REMARK  136  A    between atoms: _343  and  _346
REMARK  137  A    between atoms: _346  and  _347
REMARK  138  A    between atoms: _352  and  _354
REMARK  139  A    between atoms: _354  and  _355
REMARK  140  A    between atoms: _354  and  _357
REMARK  141  A    between atoms: _357  and  _358
REMARK  142  A    between atoms: _361  and  _363
REMARK  143  A    between atoms: _363  and  _364
REMARK  144  A    between atoms: _363  and  _366
REMARK  145  A    between atoms: _366  and  _367
REMARK  146  A    between atoms: _372  and  _374
REMARK  147  A    between atoms: _374  and  _375
REMARK  148  A    between atoms: _374  and  _377
REMARK  149  A    between atoms: _377  and  _378
REMARK  150  A    between atoms: _388  and  _390
REMARK  151  A    between atoms: _390  and  _391
REMARK  152  A    between atoms: _390  and  _393
REMARK  153  A    between atoms: _393  and  _394
REMARK  154  A    between atoms: _400  and  _402
REMARK  155  A    between atoms: _402  and  _403
REMARK  156  A    between atoms: _402  and  _405
REMARK  157  A    between atoms: _405  and  _406
REMARK  158  A    between atoms: _409  and  _411
REMARK  159  A    between atoms: _411  and  _412
REMARK  160  A    between atoms: _411  and  _414
REMARK  161  A    between atoms: _414  and  _415
REMARK  162  A    between atoms: _418  and  _420
REMARK  163  A    between atoms: _420  and  _421
REMARK  164  A    between atoms: _420  and  _423
REMARK  165  A    between atoms: _423  and  _424
REMARK  166  A    between atoms: _424  and  _425
REMARK  167  A    between atoms: _425  and  _426
REMARK  168  A    between atoms: _435  and  _437
REMARK  169  A    between atoms: _437  and  _438
REMARK  170  A    between atoms: _437  and  _440
REMARK  171  A    between atoms: _440  and  _441
REMARK  172  A    between atoms: _446  and  _448
REMARK  173  A    between atoms: _448  and  _449
REMARK  174  A    between atoms: _448  and  _451
REMARK  175  A    between atoms: _451  and  _452
REMARK  176  A    between atoms: _452  and  _453
REMARK  177  A    between atoms: _453  and  _454
REMARK  178  A    between atoms: _463  and  _465
REMARK  179  A    between atoms: _465  and  _466
REMARK  180  A    between atoms: _469  and  _471
REMARK  181  A    between atoms: _471  and  _472
REMARK  182  A    between atoms: _474  and  _476
REMARK  183  A    between atoms: _476  and  _477
REMARK  184  A    between atoms: _476  and  _479
REMARK  185  A    between atoms: _479  and  _480
REMARK  186  A    between atoms: _490  and  _492
REMARK  187  A    between atoms: _492  and  _493
REMARK  188  A    between atoms: _492  and  _495
REMARK  189  A    between atoms: _495  and  _496
REMARK  190  A    between atoms: _497  and  _499
REMARK  191  A    between atoms: _499  and  _500
REMARK  192  A    between atoms: _503  and  _505
REMARK  193  A    between atoms: _505  and  _506
REMARK  194  A    between atoms: _505  and  _508
REMARK  195  A    between atoms: _508  and  _509
REMARK  196  A    between atoms: _512  and  _514
REMARK  197  A    between atoms: _514  and  _515
REMARK  198  A    between atoms: _514  and  _517
REMARK  199  A    between atoms: _517  and  _518
REMARK  200  A    between atoms: _523  and  _524
REMARK  201  A    between atoms: _526  and  _528
REMARK  202  A    between atoms: _528  and  _529
REMARK  203  A    between atoms: _528  and  _531
REMARK  204  A    between atoms: _531  and  _532
REMARK  205  A    between atoms: _534  and  _536
REMARK  206  A    between atoms: _536  and  _537
REMARK  207  A    between atoms: _536  and  _539
REMARK  208  A    between atoms: _539  and  _540
REMARK  209  A    between atoms: _546  and  _548
REMARK  210  A    between atoms: _548  and  _549
REMARK  211  A    between atoms: _548  and  _551
REMARK  212  A    between atoms: _551  and  _552
REMARK  213  A    between atoms: _555  and  _557
REMARK  214  A    between atoms: _557  and  _558
REMARK  215  A    between atoms: _557  and  _560
REMARK  216  A    between atoms: _560  and  _561
REMARK  217  A    between atoms: _563  and  _565
REMARK  218  A    between atoms: _565  and  _566
REMARK  219  A    between atoms: _565  and  _568
REMARK  220  A    between atoms: _568  and  _569
REMARK  221  A    between atoms: _574  and  _576
REMARK  222  A    between atoms: _576  and  _577
REMARK  223  A    between atoms: _576  and  _579
REMARK  224  A    between atoms: _579  and  _580
REMARK  225  A    between atoms: _585  and  _587
REMARK  226  A    between atoms: _587  and  _588
REMARK  227  A    between atoms: _587  and  _590
REMARK  228  A    between atoms: _590  and  _591
REMARK  229  A    between atoms: _594  and  _596
REMARK  230  A    between atoms: _596  and  _597
REMARK  231  A    between atoms: _600  and  _602
REMARK  232  A    between atoms: _602  and  _603
REMARK  233  A    between atoms: _602  and  _605
REMARK  234  A    between atoms: _605  and  _606
REMARK  235  A    between atoms: _611  and  _612
REMARK  236  A    between atoms: _614  and  _616
REMARK  237  A    between atoms: _616  and  _617
REMARK  238  A    between atoms: _616  and  _619
REMARK  239  A    between atoms: _619  and  _620
REMARK  240  A    between atoms: _625  and  _626
REMARK  241  A    between atoms: _628  and  _630
REMARK  242  A    between atoms: _630  and  _631
REMARK  243  A    between atoms: _630  and  _633
REMARK  244  A    between atoms: _636  and  _638
REMARK  245  A    between atoms: _638  and  _639
REMARK  246  A    between atoms: _638  and  _641
REMARK  247  A    between atoms: _641  and  _642
REMARK  248  A    between atoms: _647  and  _649
REMARK  249  A    between atoms: _649  and  _650
REMARK  250  A    between atoms: _653  and  _655
REMARK  251  A    between atoms: _655  and  _656
REMARK  252  A    between atoms: _655  and  _658
REMARK  253  A    between atoms: _658  and  _659
REMARK  254  A    between atoms: _659  and  _660
REMARK  255  A    between atoms: _660  and  _661
REMARK  256  A    between atoms: _670  and  _672
REMARK  257  A    between atoms: _672  and  _673
REMARK  258  A    between atoms: _672  and  _675
REMARK  259  A    between atoms: _675  and  _676
REMARK  260  A    between atoms: _679  and  _681
REMARK  261  A    between atoms: _681  and  _682
REMARK  262  A    between atoms: _681  and  _684
REMARK  263  A    between atoms: _684  and  _685
REMARK  264  A    between atoms: _688  and  _690
REMARK  265  A    between atoms: _690  and  _691
REMARK  266  A    between atoms: _690  and  _693
REMARK  267  A    between atoms: _693  and  _694
REMARK  268  A    between atoms: _724  and  _725
REMARK  269  A    between atoms: _725  and  _731
REMARK                            x       y       z     vdW  Elec       q    Type
REMARK                         _______ _______ _______ _____ _____    ______ ____
ROOT
ATOM      1  CB  GLN A   1       6.678  28.928  10.269  0.00  0.00    +0.035 C 
ENDROOT
BRANCH   1   2
ATOM      2  CA  GLN A   1       5.758  29.670   9.276  0.00  0.00    +0.134 C 
BRANCH   2   3
ATOM      3  N   GLN A   1       4.780  28.807   8.656  0.00  0.00    -0.239 NA
ATOM      4  H   GLN A   1       4.732  27.810   8.949  0.00  0.00    +0.142 HD
ENDBRANCH   2   3
BRANCH   2   5
ATOM      5  C   GLN A   1       6.778  30.109   8.206  0.00  0.00    +0.224 C 
ATOM      6  O   GLN A   1       7.220  31.260   8.278  0.00  0.00    -0.287 OA
ENDBRANCH   2   5
ENDBRANCH   1   2
BRANCH   1   7
ATOM      7  CG  GLN A   1       6.010  28.445  11.533  0.00  0.00    +0.087 C 
BRANCH   7   8
ATOM      8  CD  GLN A   1       6.998  27.467  12.234  0.00  0.00    +0.219 C 
ATOM      9  NE2 GLN A   1       7.592  27.941  13.309  0.00  0.00    -0.329 N 
ATOM     10 HE21 GLN A   1       8.275  27.353  13.828  0.00  0.00    +0.145 HD
ATOM     11 HE22 GLN A   1       7.378  28.904  13.640  0.00  0.00    +0.145 HD
ATOM     12  OE1 GLN A   1       7.191  26.338  11.771  0.00  0.00    -0.275 OA
ENDBRANCH   7   8
ENDBRANCH   1   7
TORSDOF 5
REMARK  Name = ../refined-set-2016/1b3h/1b3h_pocket.pdb
REMARK  269 active torsions:
REMARK  status: ('A' for Active; 'I' for Inactive)
REMARK    1  A    between atoms: _1  and  _3
REMARK    2  A    between atoms: _3  and  _4
REMARK    3  A    between atoms: _3  and  _6
REMARK    4  A    between atoms: _6  and  _7
REMARK    5  A    between atoms: _12  and  _14
REMARK    6  A    between atoms: _14  and  _15
REMARK    7  A    between atoms: _17  and  _19
REMARK    8  A    between atoms: _19  and  _20
REMARK    9  A    between atoms: _19  and  _22
REMARK   10  A    between atoms: _22  and  _23
REMARK   11  A    between atoms: _25  and  _27
REMARK   12  A    between atoms: _27  and  _28
REMARK   13  A    between atoms: _27  and  _30
REMARK   14  A    between atoms: _30  and  _31
REMARK   15  A    between atoms: _31  and  _32
REMARK   16  A    between atoms: _37  and  _39
REMARK   17  A    between atoms: _39  and  _40
REMARK   18  A    between atoms: _39  and  _42
REMARK   19  A    between atoms: _42  and  _43
REMARK   20  A    between atoms: _46  and  _48
REMARK   21  A    between atoms: _48  and  _49
REMARK   22  A    between atoms: _48  and  _51
REMARK   23  A    between atoms: _51  and  _52
REMARK   24  A    between atoms: _52  and  _53
REMARK   25  A    between atoms: _56  and  _58
REMARK   26  A    between atoms: _58  and  _59
REMARK   27  A    between atoms: _61  and  _63
REMARK   28  A    between atoms: _63  and  _64
REMARK   29  A    between atoms: _63  and  _66
REMARK   30  A    between atoms: _70  and  _71
REMARK   31  A    between atoms: _76  and  _78
REMARK   32  A    between atoms: _78  and  _79
REMARK   33  A    between atoms: _78  and  _81
REMARK   34  A    between atoms: _81  and  _82
REMARK   35  A    between atoms: _82  and  _83
REMARK   36  A    between atoms: _86  and  _88
REMARK   37  A    between atoms: _88  and  _89
REMARK   38  A    between atoms: _88  and  _91
REMARK   39  A    between atoms: _91  and  _92
REMARK   40  A    between atoms: _94  and  _96
REMARK   41  A    between atoms: _96  and  _97
REMARK   42  A    between atoms: _96  and  _99
REMARK   43  A    between atoms: _99  and  _100
REMARK   44  A    between atoms: _105  and  _107
REMARK   45  A    between atoms: _107  and  _108
REMARK   46  A    between atoms: _107  and  _110
REMARK   47  A    between atoms: _110  and  _111
REMARK   48  A    between atoms: _111  and  _112
REMARK   49  A    between atoms: _112  and  _113
REMARK   50  A    between atoms: _123  and  _124
REMARK   51  A    between atoms: _129  and  _131
REMARK   52  A    between atoms: _131  and  _132
REMARK   53  A    between atoms: _131  and  _134
REMARK   54  A    between atoms: _134  and  _135
REMARK   55  A    between atoms: _140  and  _141
REMARK   56  A    between atoms: _143  and  _145
REMARK   57  A    between atoms: _145  and  _146
REMARK   58  A    between atoms: _145  and  _148
REMARK   59  A    between atoms: _148  and  _149
REMARK   60  A    between atoms: _154  and  _155
REMARK   61  A    between atoms: _157  and  _159
REMARK   62  A    between atoms: _159  and  _160
REMARK   63  A    between atoms: _159  and  _162
REMARK   64  A    between atoms: _162  and  _163
REMARK   65  A    between atoms: _168  and  _169
REMARK   66  A    between atoms: _171  and  _173
REMARK   67  A    between atoms: _173  and  _174
REMARK   68  A    between atoms: _173  and  _176
REMARK   69  A    between atoms: _179  and  _181
REMARK   70  A    between atoms: _181  and  _182
REMARK   71  A    between atoms: _181  and  _184
REMARK   72  A    between atoms: _184  and  _185
REMARK   73  A    between atoms: _191  and  _192
REMARK   74  A    between atoms: _197  and  _199
REMARK   75  A    between atoms: _199  and  _200
REMARK   76  A    between atoms: _199  and  _202
REMARK   77  A    between atoms: _202  and  _203
REMARK   78  A    between atoms: _205  and  _207
REMARK   79  A    between atoms: _207  and  _208
REMARK   80  A    between atoms: _207  and  _210
REMARK   81  A    between atoms: _210  and  _211
REMARK   82  A    between atoms: _216  and  _217
REMARK   83  A    between atoms: _219  and  _221
REMARK   84  A    between atoms: _221  and  _222
REMARK   85  A    between atoms: _221  and  _224
REMARK   86  A    between atoms: _224  and  _225
REMARK   87  A    between atoms: _230  and  _232
REMARK   88  A    between atoms: _232  and  _233
REMARK   89  A    between atoms: _232  and  _235
REMARK   90  A    between atoms: _235  and  _236
REMARK   91  A    between atoms: _241  and  _243
REMARK   92  A    between atoms: _243  and  _244
REMARK   93  A    between atoms: _243  and  _246
REMARK   94  A    between atoms: _246  and  _247
REMARK   95  A    between atoms: _247  and  _248
REMARK   96  A    between atoms: _250  and  _252
REMARK   97  A    between atoms: _252  and  _253
REMARK   98  A    between atoms: _252  and  _255
REMARK   99  A    between atoms: _255  and  _256
REMARK  100  A    between atoms: _261  and  _262
REMARK  101  A    between atoms: _264  and  _266
REMARK  102  A    between atoms: _266  and  _267
REMARK  103  A    between atoms: _266  and  _269
REMARK  104  A    between atoms: _269  and  _270
REMARK  105  A    between atoms: _273  and  _275
REMARK  106  A    between atoms: _275  and  _276
REMARK  107  A    between atoms: _275  and  _278
REMARK  108  A    between atoms: _278  and  _279
REMARK  109  A    between atoms: _279  and  _496
REMARK  110  A    between atoms: _280  and  _282
REMARK  111  A    between atoms: _282  and  _283
REMARK  112  A    between atoms: _282  and  _285
REMARK  113  A    between atoms: _285  and  _286
REMARK  114  A    between atoms: _289  and  _291
REMARK  115  A    between atoms: _291  and  _292
REMARK  116  A    between atoms: _291  and  _294
REMARK  117  A    between atoms: _294  and  _295
REMARK  118  A    between atoms: _300  and  _301
REMARK  119  A    between atoms: _303  and  _305
REMARK  120  A    between atoms: _305  and  _306
REMARK  121  A    between atoms: _305  and  _308
REMARK  122  A    between atoms: _308  and  _309
REMARK  123  A    between atoms: _314  and  _315
REMARK  124  A    between atoms: _317  and  _319
REMARK  125  A    between atoms: _319  and  _320
REMARK  126  A    between atoms: _319  and  _322
REMARK  127  A    between atoms: _322  and  _323
REMARK  128  A    between atoms: _323  and  _324
REMARK  129  A    between atoms: _327  and  _329
REMARK  130  A    between atoms: _329  and  _330
REMARK  131  A    between atoms: _329  and  _332
REMARK  132  A    between atoms: _332  and  _333
REMARK  133  A    between atoms: _338  and  _339
REMARK  134  A    between atoms: _341  and  _343
REMARK  135  A    between atoms: _343  and  _344
REMARK  136  A    between atoms: _343  and  _346
REMARK  137  A    between atoms: _346  and  _347
REMARK  138  A    between atoms: _352  and  _354
REMARK  139  A    between atoms: _354  and  _355
REMARK  140  A    between atoms: _354  and  _357
REMARK  141  A    between atoms: _357  and  _358
REMARK  142  A    between atoms: _361  and  _363
REMARK  143  A    between atoms: _363  and  _364
REMARK  144  A    between atoms: _363  and  _366
REMARK  145  A    between atoms: _366  and  _367
REMARK  146  A    between atoms: _372  and  _374
REMARK  147  A    between atoms: _374  and  _375
REMARK  148  A    between atoms: _374  and  _377
REMARK  149  A    between atoms: _377  and  _378
REMARK  150  A    between atoms: _388  and  _390
REMARK  151  A    between atoms: _390  and  _391
REMARK  152  A    between atoms: _390  and  _393
REMARK  153  A    between atoms: _393  and  _394
REMARK  154  A    between atoms: _400  and  _402
REMARK  155  A    between atoms: _402  and  _403
REMARK  156  A    between atoms: _402  and  _405
REMARK  157  A    between atoms: _405  and  _406
REMARK  158  A    between atoms: _409  and  _411
REMARK  159  A    between atoms: _411  and  _412
REMARK  160  A    between atoms: _411  and  _414
REMARK  161  A    between atoms: _414  and  _415
REMARK  162  A    between atoms: _418  and  _420
REMARK  163  A    between atoms: _420  and  _421
REMARK  164  A    between atoms: _420  and  _423
REMARK  165  A    between atoms: _423  and  _424
REMARK  166  A    between atoms: _424  and  _425
REMARK  167  A    between atoms: _425  and  _426
REMARK  168  A    between atoms: _435  and  _437
REMARK  169  A    between atoms: _437  and  _438
REMARK  170  A    between atoms: _437  and  _440
REMARK  171  A    between atoms: _440  and  _441
REMARK  172  A    between atoms: _446  and  _448
REMARK  173  A    between atoms: _448  and  _449
REMARK  174  A    between atoms: _448  and  _451
REMARK  175  A    between atoms: _451  and  _452
REMARK  176  A    between atoms: _452  and  _453
REMARK  177  A    between atoms: _453  and  _454
REMARK  178  A    between atoms: _463  and  _465
REMARK  179  A    between atoms: _465  and  _466
REMARK  180  A    between atoms: _469  and  _471
REMARK  181  A    between atoms: _471  and  _472
REMARK  182  A    between atoms: _474  and  _476
REMARK  183  A    between atoms: _476  and  _477
REMARK  184  A    between atoms: _476  and  _479
REMARK  185  A    between atoms: _479  and  _480
REMARK  186  A    between atoms: _490  and  _492
REMARK  187  A    between atoms: _492  and  _493
REMARK  188  A    between atoms: _492  and  _495
REMARK  189  A    between atoms: _495  and  _496
REMARK  190  A    between atoms: _497  and  _499
REMARK  191  A    between atoms: _499  and  _500
REMARK  192  A    between atoms: _503  and  _505
REMARK  193  A    between atoms: _505  and  _506
REMARK  194  A    between atoms: _505  and  _508
REMARK  195  A    between atoms: _508  and  _509
REMARK  196  A    between atoms: _512  and  _514
REMARK  197  A    between atoms: _514  and  _515
REMARK  198  A    between atoms: _514  and  _517
REMARK  199  A    between atoms: _517  and  _518
REMARK  200  A    between atoms: _523  and  _524
REMARK  201  A    between atoms: _526  and  _528
REMARK  202  A    between atoms: _528  and  _529
REMARK  203  A    between atoms: _528  and  _531
REMARK  204  A    between atoms: _531  and  _532
REMARK  205  A    between atoms: _534  and  _536
REMARK  206  A    between atoms: _536  and  _537
REMARK  207  A    between atoms: _536  and  _539
REMARK  208  A    between atoms: _539  and  _540
REMARK  209  A    between atoms: _546  and  _548
REMARK  210  A    between atoms: _548  and  _549
REMARK  211  A    between atoms: _548  and  _551
REMARK  212  A    between atoms: _551  and  _552
REMARK  213  A    between atoms: _555  and  _557
REMARK  214  A    between atoms: _557  and  _558
REMARK  215  A    between atoms: _557  and  _560
REMARK  216  A    between atoms: _560  and  _561
REMARK  217  A    between atoms: _563  and  _565
REMARK  218  A    between atoms: _565  and  _566
REMARK  219  A    between atoms: _565  and  _568
REMARK  220  A    between atoms: _568  and  _569
REMARK  221  A    between atoms: _574  and  _576
REMARK  222  A    between atoms: _576  and  _577
REMARK  223  A    between atoms: _576  and  _579
REMARK  224  A    between atoms: _579  and  _580
REMARK  225  A    between atoms: _585  and  _587
REMARK  226  A    between atoms: _587  and  _588
REMARK  227  A    between atoms: _587  and  _590
REMARK  228  A    between atoms: _590  and  _591
REMARK  229  A    between atoms: _594  and  _596
REMARK  230  A    between atoms: _596  and  _597
REMARK  231  A    between atoms: _600  and  _602
REMARK  232  A    between atoms: _602  and  _603
REMARK  233  A    between atoms: _602  and  _605
REMARK  234  A    between atoms: _605  and  _606
REMARK  235  A    between atoms: _611  and  _612
REMARK  236  A    between atoms: _614  and  _616
REMARK  237  A    between atoms: _616  and  _617
REMARK  238  A    between atoms: _616  and  _619
REMARK  239  A    between atoms: _619  and  _620
REMARK  240  A    between atoms: _625  and  _626
REMARK  241  A    between atoms: _628  and  _630
REMARK  242  A    between atoms: _630  and  _631
REMARK  243  A    between atoms: _630  and  _633
REMARK  244  A    between atoms: _636  and  _638
REMARK  245  A    between atoms: _638  and  _639
REMARK  246  A    between atoms: _638  and  _641
REMARK  247  A    between atoms: _641  and  _642
REMARK  248  A    between atoms: _647  and  _649
REMARK  249  A    between atoms: _649  and  _650
REMARK  250  A    between atoms: _653  and  _655
REMARK  251  A    between atoms: _655  and  _656
REMARK  252  A    between atoms: _655  and  _658
REMARK  253  A    between atoms: _658  and  _659
REMARK  254  A    between atoms: _659  and  _660
REMARK  255  A    between atoms: _660  and  _661
REMARK  256  A    between atoms: _670  and  _672
REMARK  257  A    between atoms: _672  and  _673
REMARK  258  A    between atoms: _672  and  _675
REMARK  259  A    between atoms: _675  and  _676
REMARK  260  A    between atoms: _679  and  _681
REMARK  261  A    between atoms: _681  and  _682
REMARK  262  A    between atoms: _681  and  _684
REMARK  263  A    between atoms: _684  and  _685
REMARK  264  A    between atoms: _688  and  _690
REMARK  265  A    between atoms: _690  and  _691
REMARK  266  A    between atoms: _690  and  _693
REMARK  267  A    between atoms: _693  and  _694
REMARK  268  A    between atoms: _724  and  _725
REMARK  269  A    between atoms: _725  and  _731
REMARK                            x       y       z     vdW  Elec       q    Type
REMARK                         _______ _______ _______ _____ _____    ______ ____
ROOT
ATOM      1  C   VAL A   4       2.295  20.526   9.093  0.00  0.00    +0.244 C 
ATOM      2  N   PRO A   5       1.682  21.707   9.169  0.00  0.00    -0.272 N 
ATOM      3  CD  PRO A   5       1.173  22.359  10.391  0.00  0.00    +0.094 C 
ATOM      4  CG  PRO A   5       0.152  23.344   9.809  0.00  0.00    +0.024 C 
ATOM      5  CB  PRO A   5       0.821  23.818   8.535  0.00  0.00    +0.031 C 
ATOM      6  CA  PRO A   5       1.392  22.514   7.986  0.00  0.00    +0.152 C 
ATOM      7  O   VAL A   4       2.644  20.071   8.012  0.00  0.00    -0.273 OA
ENDROOT
BRANCH   6   8
ATOM      8  C   PRO A   5       2.670  22.754   7.199  0.00  0.00    +0.241 C 
ATOM      9  N   GLU A   6       3.725  23.199   7.887  0.00  0.00    -0.297 N 
ATOM     10  H   GLU A   6       3.625  23.349   8.911  0.00  0.00    +0.150 HD
ATOM     11  O   PRO A   5       2.652  22.598   5.973  0.00  0.00    -0.273 OA
BRANCH   9  12
ATOM     12  CA  GLU A   6       5.009  23.482   7.261  0.00  0.00    +0.149 C 
BRANCH  12  13
ATOM     13  C   GLU A   6       5.605  22.247   6.572  0.00  0.00    +0.241 C 
ATOM     14  N   SER A   7       5.549  21.081   7.252  0.00  0.00    -0.295 N 
ATOM     15  H   SER A   7       5.107  21.052   8.193  0.00  0.00    +0.150 HD
ATOM     16  O   GLU A   6       6.025  22.378   5.387  0.00  0.00    -0.273 OA
BRANCH  14  17
ATOM     17  CA  SER A   7       6.107  19.857   6.672  0.00  0.00    +0.178 C 
BRANCH  17  18
ATOM     18  C   SER A   7       5.232  19.313   5.547  0.00  0.00    +0.243 C 
ATOM     19  N   ASN A   8       3.929  19.572   5.548  0.00  0.00    -0.298 N 
ATOM     20  H   ASN A   8       3.521  20.114   6.337  0.00  0.00    +0.150 HD
ATOM     21  O   SER A   7       5.812  18.691   4.686  0.00  0.00    -0.273 OA
BRANCH  19  22
ATOM     22  CA  ASN A   8       3.054  19.116   4.471  0.00  0.00    +0.146 C 
BRANCH  22  23
ATOM     23  C   ASN A   8       3.572  19.658   3.134  0.00  0.00    +0.227 C 
ATOM     24  O   ASN A   8       3.613  18.982   2.110  0.00  0.00    -0.286 OA
ENDBRANCH  22  23
BRANCH  22  25
ATOM     25  CB  ASN A   8       1.585  19.614   4.662  0.00  0.00    +0.112 C 
BRANCH  25  26
ATOM     26  CG  ASN A   8       0.830  18.769   5.663  0.00  0.00    +0.222 C 
ATOM     27  ND2 ASN A   8      -0.285  19.282   6.161  0.00  0.00    -0.329 N 
ATOM     28 HD21 ASN A   8      -0.819  18.760   6.885  0.00  0.00    +0.145 HD
ATOM     29 HD22 ASN A   8      -0.626  20.206   5.828  0.00  0.00    +0.145 HD
ATOM     30  OD1 ASN A   8       1.291  17.662   6.023  0.00  0.00    -0.275 OA
ENDBRANCH  25  26
ENDBRANCH  22  25
ENDBRANCH  19  22
ENDBRANCH  17  18
BRANCH  17  31
ATOM     31  CB  SER A   7       6.192  18.714   7.707  0.00  0.00    +0.166 C 
BRANCH  31  32
ATOM     32  OG  SER A   7       7.010  19.226   8.787  0.00  0.00    -0.380 OA
ATOM     33  H   SER A   7       6.580  20.031   9.172  0.00  0.00    +0.211 HD
ENDBRANCH  31  32
ENDBRANCH  17  31
ENDBRANCH  14  17
ENDBRANCH  12  13
BRANCH  12  34
ATOM     34  CB  GLU A   6       6.045  24.022   8.271  0.00  0.00    +0.041 C 
BRANCH  34  35
ATOM     35  CG  GLU A   6       5.796  25.388   8.891  0.00  0.00    +0.116 C 
BRANCH  35  36
ATOM     36  CD  GLU A   6       4.561  25.403   9.781  0.00  0.00    +0.365 C 
ATOM     37  OE2 GLU A   6       4.140  24.342  10.282  0.00  0.00    -0.246 OA
ATOM     38  OE1 GLU A   6       3.976  26.494   9.994  0.00  0.00    -0.246 OA
ENDBRANCH  35  36
ENDBRANCH  34  35
ENDBRANCH  12  34
ENDBRANCH   9  12
ENDBRANCH   6   8
BRANCH   1  39
ATOM     39  CA  VAL A   4       2.628  19.794  10.362  0.00  0.00    +0.149 C 
BRANCH  39  41
ATOM     40  C   GLY A   3       4.475  21.242  11.147  0.00  0.00    +0.243 C 
ATOM     41  N   VAL A   4       3.298  20.653  11.367  0.00  0.00    -0.297 N 
ATOM     42  H   VAL A   4       2.830  20.803  12.284  0.00  0.00    +0.150 HD
ATOM     43  O   GLY A   3       5.123  21.068  10.111  0.00  0.00    -0.273 OA
BRANCH  40  44
ATOM     44  CA  GLY A   3       4.970  22.098  12.303  0.00  0.00    +0.176 C 
BRANCH  44  47
ATOM     45  C   GLU A   2       7.287  22.227  13.032  0.00  0.00    +0.241 C 
ATOM     46  O   GLU A   2       7.119  21.307  13.822  0.00  0.00    -0.273 OA
ATOM     47  N   GLY A   3       6.333  22.626  12.182  0.00  0.00    -0.295 N 
ATOM     48  H   GLY A   3       6.559  23.312  11.434  0.00  0.00    +0.150 HD
BRANCH  45  49
ATOM     49  CA  GLU A   2       8.658  22.865  12.986  0.00  0.00    +0.149 C 
BRANCH  49  51
ATOM     50  C   ILE A   1       9.976  24.062  11.354  0.00  0.00    +0.238 C 
ATOM     51  N   GLU A   2       8.769  23.904  11.922  0.00  0.00    -0.297 N 
ATOM     52  H   GLU A   2       7.951  24.478  11.634  0.00  0.00    +0.150 HD
ATOM     53  O   ILE A   1      10.949  23.340  11.628  0.00  0.00    -0.274 OA
BRANCH  50  54
ATOM     54  CA  ILE A   1      10.059  25.148  10.289  0.00  0.00    +0.145 C 
BRANCH  54  55
ATOM     55  CB  ILE A   1       9.484  24.578   8.990  0.00  0.00    +0.025 C 
ATOM     56  CG2 ILE A   1       9.473  25.646   7.861  0.00  0.00    +0.002 C 
BRANCH  55  57
ATOM     57  CG1 ILE A   1      10.285  23.339   8.540  0.00  0.00    +0.002 C 
ATOM     58  CD1 ILE A   1       9.580  22.651   7.353  0.00  0.00    +0.000 C 
ENDBRANCH  55  57
ENDBRANCH  54  55
BRANCH  54  59
ATOM     59  N   ILE A   1      11.422  25.681  10.035  0.00  0.00    -0.238 NA
ATOM     60  H   ILE A   1      12.148  25.061   9.623  0.00  0.00    +0.142 HD
ENDBRANCH  54  59
ENDBRANCH  50  54
ENDBRANCH  49  51
BRANCH  49  61
ATOM     61  CB  GLU A   2       9.053  23.562  14.308  0.00  0.00    +0.041 C 
BRANCH  61  62
ATOM     62  CG  GLU A   2       8.054  24.606  14.802  0.00  0.00    +0.116 C 
BRANCH  62  63
ATOM     63  CD  GLU A   2       8.676  25.586  15.788  0.00  0.00    +0.365 C 
ATOM     64  OE2 GLU A   2       9.222  25.170  16.819  0.00  0.00    -0.246 OA
ATOM     65  OE1 GLU A   2       8.635  26.806  15.561  0.00  0.00    -0.246 OA
ENDBRANCH  62  63
ENDBRANCH  61  62
ENDBRANCH  49  61
ENDBRANCH  45  49
ENDBRANCH  44  47
ENDBRANCH  40  44
ENDBRANCH  39  41
BRANCH  39  66
ATOM     66  CB  VAL A   4       1.426  19.031  10.973  0.00  0.00    +0.027 C 
ATOM     67  CG2 VAL A   4       1.994  18.033  12.001  0.00  0.00    +0.002 C 
ATOM     68  CG1 VAL A   4       0.627  18.248   9.915  0.00  0.00    +0.002 C 
ENDBRANCH  39  66
ENDBRANCH   1  39
TORSDOF 28
REMARK  Name = ../refined-set-2016/1b3h/1b3h_pocket.pdb
REMARK  269 active torsions:
REMARK  status: ('A' for Active; 'I' for Inactive)
REMARK    1  A    between atoms: _1  and  _3
REMARK    2  A    between atoms: _3  and  _4
REMARK    3  A    between atoms: _3  and  _6
REMARK    4  A    between atoms: _6  and  _7
REMARK    5  A    between atoms: _12  and  _14
REMARK    6  A    between atoms: _14  and  _15
REMARK    7  A    between atoms: _17  and  _19
REMARK    8  A    between atoms: _19  and  _20
REMARK    9  A    between atoms: _19  and  _22
REMARK   10  A    between atoms: _22  and  _23
REMARK   11  A    between atoms: _25  and  _27
REMARK   12  A    between atoms: _27  and  _28
REMARK   13  A    between atoms: _27  and  _30
REMARK   14  A    between atoms: _30  and  _31
REMARK   15  A    between atoms: _31  and  _32
REMARK   16  A    between atoms: _37  and  _39
REMARK   17  A    between atoms: _39  and  _40
REMARK   18  A    between atoms: _39  and  _42
REMARK   19  A    between atoms: _42  and  _43
REMARK   20  A    between atoms: _46  and  _48
REMARK   21  A    between atoms: _48  and  _49
REMARK   22  A    between atoms: _48  and  _51
REMARK   23  A    between atoms: _51  and  _52
REMARK   24  A    between atoms: _52  and  _53
REMARK   25  A    between atoms: _56  and  _58
REMARK   26  A    between atoms: _58  and  _59
REMARK   27  A    between atoms: _61  and  _63
REMARK   28  A    between atoms: _63  and  _64
REMARK   29  A    between atoms: _63  and  _66
REMARK   30  A    between atoms: _70  and  _71
REMARK   31  A    between atoms: _76  and  _78
REMARK   32  A    between atoms: _78  and  _79
REMARK   33  A    between atoms: _78  and  _81
REMARK   34  A    between atoms: _81  and  _82
REMARK   35  A    between atoms: _82  and  _83
REMARK   36  A    between atoms: _86  and  _88
REMARK   37  A    between atoms: _88  and  _89
REMARK   38  A    between atoms: _88  and  _91
REMARK   39  A    between atoms: _91  and  _92
REMARK   40  A    between atoms: _94  and  _96
REMARK   41  A    between atoms: _96  and  _97
REMARK   42  A    between atoms: _96  and  _99
REMARK   43  A    between atoms: _99  and  _100
REMARK   44  A    between atoms: _105  and  _107
REMARK   45  A    between atoms: _107  and  _108
REMARK   46  A    between atoms: _107  and  _110
REMARK   47  A    between atoms: _110  and  _111
REMARK   48  A    between atoms: _111  and  _112
REMARK   49  A    between atoms: _112  and  _113
REMARK   50  A    between atoms: _123  and  _124
REMARK   51  A    between atoms: _129  and  _131
REMARK   52  A    between atoms: _131  and  _132
REMARK   53  A    between atoms: _131  and  _134
REMARK   54  A    between atoms: _134  and  _135
REMARK   55  A    between atoms: _140  and  _141
REMARK   56  A    between atoms: _143  and  _145
REMARK   57  A    between atoms: _145  and  _146
REMARK   58  A    between atoms: _145  and  _148
REMARK   59  A    between atoms: _148  and  _149
REMARK   60  A    between atoms: _154  and  _155
REMARK   61  A    between atoms: _157  and  _159
REMARK   62  A    between atoms: _159  and  _160
REMARK   63  A    between atoms: _159  and  _162
REMARK   64  A    between atoms: _162  and  _163
REMARK   65  A    between atoms: _168  and  _169
REMARK   66  A    between atoms: _171  and  _173
REMARK   67  A    between atoms: _173  and  _174
REMARK   68  A    between atoms: _173  and  _176
REMARK   69  A    between atoms: _179  and  _181
REMARK   70  A    between atoms: _181  and  _182
REMARK   71  A    between atoms: _181  and  _184
REMARK   72  A    between atoms: _184  and  _185
REMARK   73  A    between atoms: _191  and  _192
REMARK   74  A    between atoms: _197  and  _199
REMARK   75  A    between atoms: _199  and  _200
REMARK   76  A    between atoms: _199  and  _202
REMARK   77  A    between atoms: _202  and  _203
REMARK   78  A    between atoms: _205  and  _207
REMARK   79  A    between atoms: _207  and  _208
REMARK   80  A    between atoms: _207  and  _210
REMARK   81  A    between atoms: _210  and  _211
REMARK   82  A    between atoms: _216  and  _217
REMARK   83  A    between atoms: _219  and  _221
REMARK   84  A    between atoms: _221  and  _222
REMARK   85  A    between atoms: _221  and  _224
REMARK   86  A    between atoms: _224  and  _225
REMARK   87  A    between atoms: _230  and  _232
REMARK   88  A    between atoms: _232  and  _233
REMARK   89  A    between atoms: _232  and  _235
REMARK   90  A    between atoms: _235  and  _236
REMARK   91  A    between atoms: _241  and  _243
REMARK   92  A    between atoms: _243  and  _244
REMARK   93  A    between atoms: _243  and  _246
REMARK   94  A    between atoms: _246  and  _247
REMARK   95  A    between atoms: _247  and  _248
REMARK   96  A    between atoms: _250  and  _252
REMARK   97  A    between atoms: _252  and  _253
REMARK   98  A    between atoms: _252  and  _255
REMARK   99  A    between atoms: _255  and  _256
REMARK  100  A    between atoms: _261  and  _262
REMARK  101  A    between atoms: _264  and  _266
REMARK  102  A    between atoms: _266  and  _267
REMARK  103  A    between atoms: _266  and  _269
REMARK  104  A    between atoms: _269  and  _270
REMARK  105  A    between atoms: _273  and  _275
REMARK  106  A    between atoms: _275  and  _276
REMARK  107  A    between atoms: _275  and  _278
REMARK  108  A    between atoms: _278  and  _279
REMARK  109  A    between atoms: _279  and  _496
REMARK  110  A    between atoms: _280  and  _282
REMARK  111  A    between atoms: _282  and  _283
REMARK  112  A    between atoms: _282  and  _285
REMARK  113  A    between atoms: _285  and  _286
REMARK  114  A    between atoms: _289  and  _291
REMARK  115  A    between atoms: _291  and  _292
REMARK  116  A    between atoms: _291  and  _294
REMARK  117  A    between atoms: _294  and  _295
REMARK  118  A    between atoms: _300  and  _301
REMARK  119  A    between atoms: _303  and  _305
REMARK  120  A    between atoms: _305  and  _306
REMARK  121  A    between atoms: _305  and  _308
REMARK  122  A    between atoms: _308  and  _309
REMARK  123  A    between atoms: _314  and  _315
REMARK  124  A    between atoms: _317  and  _319
REMARK  125  A    between atoms: _319  and  _320
REMARK  126  A    between atoms: _319  and  _322
REMARK  127  A    between atoms: _322  and  _323
REMARK  128  A    between atoms: _323  and  _324
REMARK  129  A    between atoms: _327  and  _329
REMARK  130  A    between atoms: _329  and  _330
REMARK  131  A    between atoms: _329  and  _332
REMARK  132  A    between atoms: _332  and  _333
REMARK  133  A    between atoms: _338  and  _339
REMARK  134  A    between atoms: _341  and  _343
REMARK  135  A    between atoms: _343  and  _344
REMARK  136  A    between atoms: _343  and  _346
REMARK  137  A    between atoms: _346  and  _347
REMARK  138  A    between atoms: _352  and  _354
REMARK  139  A    between atoms: _354  and  _355
REMARK  140  A    between atoms: _354  and  _357
REMARK  141  A    between atoms: _357  and  _358
REMARK  142  A    between atoms: _361  and  _363
REMARK  143  A    between atoms: _363  and  _364
REMARK  144  A    between atoms: _363  and  _366
REMARK  145  A    between atoms: _366  and  _367
REMARK  146  A    between atoms: _372  and  _374
REMARK  147  A    between atoms: _374  and  _375
REMARK  148  A    between atoms: _374  and  _377
REMARK  149  A    between atoms: _377  and  _378
REMARK  150  A    between atoms: _388  and  _390
REMARK  151  A    between atoms: _390  and  _391
REMARK  152  A    between atoms: _390  and  _393
REMARK  153  A    between atoms: _393  and  _394
REMARK  154  A    between atoms: _400  and  _402
REMARK  155  A    between atoms: _402  and  _403
REMARK  156  A    between atoms: _402  and  _405
REMARK  157  A    between atoms: _405  and  _406
REMARK  158  A    between atoms: _409  and  _411
REMARK  159  A    between atoms: _411  and  _412
REMARK  160  A    between atoms: _411  and  _414
REMARK  161  A    between atoms: _414  and  _415
REMARK  162  A    between atoms: _418  and  _420
REMARK  163  A    between atoms: _420  and  _421
REMARK  164  A    between atoms: _420  and  _423
REMARK  165  A    between atoms: _423  and  _424
REMARK  166  A    between atoms: _424  and  _425
REMARK  167  A    between atoms: _425  and  _426
REMARK  168  A    between atoms: _435  and  _437
REMARK  169  A    between atoms: _437  and  _438
REMARK  170  A    between atoms: _437  and  _440
REMARK  171  A    between atoms: _440  and  _441
REMARK  172  A    between atoms: _446  and  _448
REMARK  173  A    between atoms: _448  and  _449
REMARK  174  A    between atoms: _448  and  _451
REMARK  175  A    between atoms: _451  and  _452
REMARK  176  A    between atoms: _452  and  _453
REMARK  177  A    between atoms: _453  and  _454
REMARK  178  A    between atoms: _463  and  _465
REMARK  179  A    between atoms: _465  and  _466
REMARK  180  A    between atoms: _469  and  _471
REMARK  181  A    between atoms: _471  and  _472
REMARK  182  A    between atoms: _474  and  _476
REMARK  183  A    between atoms: _476  and  _477
REMARK  184  A    between atoms: _476  and  _479
REMARK  185  A    between atoms: _479  and  _480
REMARK  186  A    between atoms: _490  and  _492
REMARK  187  A    between atoms: _492  and  _493
REMARK  188  A    between atoms: _492  and  _495
REMARK  189  A    between atoms: _495  and  _496
REMARK  190  A    between atoms: _497  and  _499
REMARK  191  A    between atoms: _499  and  _500
REMARK  192  A    between atoms: _503  and  _505
REMARK  193  A    between atoms: _505  and  _506
REMARK  194  A    between atoms: _505  and  _508
REMARK  195  A    between atoms: _508  and  _509
REMARK  196  A    between atoms: _512  and  _514
REMARK  197  A    between atoms: _514  and  _515
REMARK  198  A    between atoms: _514  and  _517
REMARK  199  A    between atoms: _517  and  _518
REMARK  200  A    between atoms: _523  and  _524
REMARK  201  A    between atoms: _526  and  _528
REMARK  202  A    between atoms: _528  and  _529
REMARK  203  A    between atoms: _528  and  _531
REMARK  204  A    between atoms: _531  and  _532
REMARK  205  A    between atoms: _534  and  _536
REMARK  206  A    between atoms: _536  and  _537
REMARK  207  A    between atoms: _536  and  _539
REMARK  208  A    between atoms: _539  and  _540
REMARK  209  A    between atoms: _546  and  _548
REMARK  210  A    between atoms: _548  and  _549
REMARK  211  A    between atoms: _548  and  _551
REMARK  212  A    between atoms: _551  and  _552
REMARK  213  A    between atoms: _555  and  _557
REMARK  214  A    between atoms: _557  and  _558
REMARK  215  A    between atoms: _557  and  _560
REMARK  216  A    between atoms: _560  and  _561
REMARK  217  A    between atoms: _563  and  _565
REMARK  218  A    between atoms: _565  and  _566
REMARK  219  A    between atoms: _565  and  _568
REMARK  220  A    between atoms: _568  and  _569
REMARK  221  A    between atoms: _574  and  _576
REMARK  222  A    between atoms: _576  and  _577
REMARK  223  A    between atoms: _576  and  _579
REMARK  224  A    between atoms: _579  and  _580
REMARK  225  A    between atoms: _585  and  _587
REMARK  226  A    between atoms: _587  and  _588
REMARK  227  A    between atoms: _587  and  _590
REMARK  228  A    between atoms: _590  and  _591
REMARK  229  A    between atoms: _594  and  _596
REMARK  230  A    between atoms: _596  and  _597
REMARK  231  A    between atoms: _600  and  _602
REMARK  232  A    between atoms: _602  and  _603
REMARK  233  A    between atoms: _602  and  _605
REMARK  234  A    between atoms: _605  and  _606
REMARK  235  A    between atoms: _611  and  _612
REMARK  236  A    between atoms: _614  and  _616
REMARK  237  A    between atoms: _616  and  _617
REMARK  238  A    between atoms: _616  and  _619
REMARK  239  A    between atoms: _619  and  _620
REMARK  240  A    between atoms: _625  and  _626
REMARK  241  A    between atoms: _628  and  _630
REMARK  242  A    between atoms: _630  and  _631
REMARK  243  A    between atoms: _630  and  _633
REMARK  244  A    between atoms: _636  and  _638
REMARK  245  A    between atoms: _638  and  _639
REMARK  246  A    between atoms: _638  and  _641
REMARK  247  A    between atoms: _641  and  _642
REMARK  248  A    between atoms: _647  and  _649
REMARK  249  A    between atoms: _649  and  _650
REMARK  250  A    between atoms: _653  and  _655
REMARK  251  A    between atoms: _655  and  _656
REMARK  252  A    between atoms: _655  and  _658
REMARK  253  A    between atoms: _658  and  _659
REMARK  254  A    between atoms: _659  and  _660
REMARK  255  A    between atoms: _660  and  _661
REMARK  256  A    between atoms: _670  and  _672
REMARK  257  A    between atoms: _672  and  _673
REMARK  258  A    between atoms: _672  and  _675
REMARK  259  A    between atoms: _675  and  _676
REMARK  260  A    between atoms: _679  and  _681
REMARK  261  A    between atoms: _681  and  _682
REMARK  262  A    between atoms: _681  and  _684
REMARK  263  A    between atoms: _684  and  _685
REMARK  264  A    between atoms: _688  and  _690
REMARK  265  A    between atoms: _690  and  _691
REMARK  266  A    between atoms: _690  and  _693
REMARK  267  A    between atoms: _693  and  _694
REMARK  268  A    between atoms: _724  and  _725
REMARK  269  A    between atoms: _725  and  _731
REMARK                            x       y       z     vdW  Elec       q    Type
REMARK                         _______ _______ _______ _____ _____    ______ ____
ROOT
ATOM      1  NE  ARG A   1       5.113  14.782   3.982  0.00  0.00    -0.265 N 
ATOM      2  CZ  ARG A   1       4.498  15.374   5.003  0.00  0.00    +0.342 C 
ATOM      3  NH2 ARG A   1       5.177  15.681   6.123  0.00  0.00    -0.292 N 
ATOM      4 HH21 ARG A   1       4.689  16.144   6.917  0.00  0.00    +0.255 HD
ATOM      5 HH22 ARG A   1       6.190  15.456   6.195  0.00  0.00    +0.255 HD
ATOM      6  NH1 ARG A   1       3.208  15.619   4.910  0.00  0.00    -0.292 N 
ATOM      7 HH11 ARG A   1       2.708  16.081   5.697  0.00  0.00    +0.255 HD
ATOM      8 HH12 ARG A   1       2.688  15.351   4.050  0.00  0.00    +0.255 HD
ATOM      9  HE  ARG A   1       4.529  14.531   3.159  0.00  0.00    +0.259 HD
ENDROOT
BRANCH   1  10
ATOM     10  CD  ARG A   1       6.529  14.455   3.914  0.00  0.00    +0.174 C 
BRANCH  10  11
ATOM     11  CG  ARG A   1       7.353  15.685   3.442  0.00  0.00    +0.045 C 
BRANCH  11  12
ATOM     12  CB  ARG A   1       6.848  16.105   2.060  0.00  0.00    +0.029 C 
BRANCH  12  13
ATOM     13  CA  ARG A   1       7.684  17.228   1.439  0.00  0.00    +0.133 C 
BRANCH  13  14
ATOM     14  N   ARG A   1       7.499  18.509   2.105  0.00  0.00    -0.239 NA
ATOM     15  H   ARG A   1       6.722  18.639   2.784  0.00  0.00    +0.142 HD
ENDBRANCH  13  14
BRANCH  13  16
ATOM     16  C   ARG A   1       7.443  17.266  -0.068  0.00  0.00    +0.224 C 
ATOM     17  O   ARG A   1       8.072  16.438  -0.724  0.00  0.00    -0.287 OA
ENDBRANCH  13  16
ENDBRANCH  12  13
ENDBRANCH  11  12
ENDBRANCH  10  11
ENDBRANCH   1  10
TORSDOF 6
REMARK  Name = ../refined-set-2016/1b3h/1b3h_pocket.pdb
REMARK  269 active torsions:
REMARK  status: ('A' for Active; 'I' for Inactive)
REMARK    1  A    between atoms: _1  and  _3
REMARK    2  A    between atoms: _3  and  _4
REMARK    3  A    between atoms: _3  and  _6
REMARK    4  A    between atoms: _6  and  _7
REMARK    5  A    between atoms: _12  and  _14
REMARK    6  A    between atoms: _14  and  _15
REMARK    7  A    between atoms: _17  and  _19
REMARK    8  A    between atoms: _19  and  _20
REMARK    9  A    between atoms: _19  and  _22
REMARK   10  A    between atoms: _22  and  _23
REMARK   11  A    between atoms: _25  and  _27
REMARK   12  A    between atoms: _27  and  _28
REMARK   13  A    between atoms: _27  and  _30
REMARK   14  A    between atoms: _30  and  _31
REMARK   15  A    between atoms: _31  and  _32
REMARK   16  A    between atoms: _37  and  _39
REMARK   17  A    between atoms: _39  and  _40
REMARK   18  A    between atoms: _39  and  _42
REMARK   19  A    between atoms: _42  and  _43
REMARK   20  A    between atoms: _46  and  _48
REMARK   21  A    between atoms: _48  and  _49
REMARK   22  A    between atoms: _48  and  _51
REMARK   23  A    between atoms: _51  and  _52
REMARK   24  A    between atoms: _52  and  _53
REMARK   25  A    between atoms: _56  and  _58
REMARK   26  A    between atoms: _58  and  _59
REMARK   27  A    between atoms: _61  and  _63
REMARK   28  A    between atoms: _63  and  _64
REMARK   29  A    between atoms: _63  and  _66
REMARK   30  A    between atoms: _70  and  _71
REMARK   31  A    between atoms: _76  and  _78
REMARK   32  A    between atoms: _78  and  _79
REMARK   33  A    between atoms: _78  and  _81
REMARK   34  A    between atoms: _81  and  _82
REMARK   35  A    between atoms: _82  and  _83
REMARK   36  A    between atoms: _86  and  _88
REMARK   37  A    between atoms: _88  and  _89
REMARK   38  A    between atoms: _88  and  _91
REMARK   39  A    between atoms: _91  and  _92
REMARK   40  A    between atoms: _94  and  _96
REMARK   41  A    between atoms: _96  and  _97
REMARK   42  A    between atoms: _96  and  _99
REMARK   43  A    between atoms: _99  and  _100
REMARK   44  A    between atoms: _105  and  _107
REMARK   45  A    between atoms: _107  and  _108
REMARK   46  A    between atoms: _107  and  _110
REMARK   47  A    between atoms: _110  and  _111
REMARK   48  A    between atoms: _111  and  _112
REMARK   49  A    between atoms: _112  and  _113
REMARK   50  A    between atoms: _123  and  _124
REMARK   51  A    between atoms: _129  and  _131
REMARK   52  A    between atoms: _131  and  _132
REMARK   53  A    between atoms: _131  and  _134
REMARK   54  A    between atoms: _134  and  _135
REMARK   55  A    between atoms: _140  and  _141
REMARK   56  A    between atoms: _143  and  _145
REMARK   57  A    between atoms: _145  and  _146
REMARK   58  A    between atoms: _145  and  _148
REMARK   59  A    between atoms: _148  and  _149
REMARK   60  A    between atoms: _154  and  _155
REMARK   61  A    between atoms: _157  and  _159
REMARK   62  A    between atoms: _159  and  _160
REMARK   63  A    between atoms: _159  and  _162
REMARK   64  A    between atoms: _162  and  _163
REMARK   65  A    between atoms: _168  and  _169
REMARK   66  A    between atoms: _171  and  _173
REMARK   67  A    between atoms: _173  and  _174
REMARK   68  A    between atoms: _173  and  _176
REMARK   69  A    between atoms: _179  and  _181
REMARK   70  A    between atoms: _181  and  _182
REMARK   71  A    between atoms: _181  and  _184
REMARK   72  A    between atoms: _184  and  _185
REMARK   73  A    between atoms: _191  and  _192
REMARK   74  A    between atoms: _197  and  _199
REMARK   75  A    between atoms: _199  and  _200
REMARK   76  A    between atoms: _199  and  _202
REMARK   77  A    between atoms: _202  and  _203
REMARK   78  A    between atoms: _205  and  _207
REMARK   79  A    between atoms: _207  and  _208
REMARK   80  A    between atoms: _207  and  _210
REMARK   81  A    between atoms: _210  and  _211
REMARK   82  A    between atoms: _216  and  _217
REMARK   83  A    between atoms: _219  and  _221
REMARK   84  A    between atoms: _221  and  _222
REMARK   85  A    between atoms: _221  and  _224
REMARK   86  A    between atoms: _224  and  _225
REMARK   87  A    between atoms: _230  and  _232
REMARK   88  A    between atoms: _232  and  _233
REMARK   89  A    between atoms: _232  and  _235
REMARK   90  A    between atoms: _235  and  _236
REMARK   91  A    between atoms: _241  and  _243
REMARK   92  A    between atoms: _243  and  _244
REMARK   93  A    between atoms: _243  and  _246
REMARK   94  A    between atoms: _246  and  _247
REMARK   95  A    between atoms: _247  and  _248
REMARK   96  A    between atoms: _250  and  _252
REMARK   97  A    between atoms: _252  and  _253
REMARK   98  A    between atoms: _252  and  _255
REMARK   99  A    between atoms: _255  and  _256
REMARK  100  A    between atoms: _261  and  _262
REMARK  101  A    between atoms: _264  and  _266
REMARK  102  A    between atoms: _266  and  _267
REMARK  103  A    between atoms: _266  and  _269
REMARK  104  A    between atoms: _269  and  _270
REMARK  105  A    between atoms: _273  and  _275
REMARK  106  A    between atoms: _275  and  _276
REMARK  107  A    between atoms: _275  and  _278
REMARK  108  A    between atoms: _278  and  _279
REMARK  109  A    between atoms: _279  and  _496
REMARK  110  A    between atoms: _280  and  _282
REMARK  111  A    between atoms: _282  and  _283
REMARK  112  A    between atoms: _282  and  _285
REMARK  113  A    between atoms: _285  and  _286
REMARK  114  A    between atoms: _289  and  _291
REMARK  115  A    between atoms: _291  and  _292
REMARK  116  A    between atoms: _291  and  _294
REMARK  117  A    between atoms: _294  and  _295
REMARK  118  A    between atoms: _300  and  _301
REMARK  119  A    between atoms: _303  and  _305
REMARK  120  A    between atoms: _305  and  _306
REMARK  121  A    between atoms: _305  and  _308
REMARK  122  A    between atoms: _308  and  _309
REMARK  123  A    between atoms: _314  and  _315
REMARK  124  A    between atoms: _317  and  _319
REMARK  125  A    between atoms: _319  and  _320
REMARK  126  A    between atoms: _319  and  _322
REMARK  127  A    between atoms: _322  and  _323
REMARK  128  A    between atoms: _323  and  _324
REMARK  129  A    between atoms: _327  and  _329
REMARK  130  A    between atoms: _329  and  _330
REMARK  131  A    between atoms: _329  and  _332
REMARK  132  A    between atoms: _332  and  _333
REMARK  133  A    between atoms: _338  and  _339
REMARK  134  A    between atoms: _341  and  _343
REMARK  135  A    between atoms: _343  and  _344
REMARK  136  A    between atoms: _343  and  _346
REMARK  137  A    between atoms: _346  and  _347
REMARK  138  A    between atoms: _352  and  _354
REMARK  139  A    between atoms: _354  and  _355
REMARK  140  A    between atoms: _354  and  _357
REMARK  141  A    between atoms: _357  and  _358
REMARK  142  A    between atoms: _361  and  _363
REMARK  143  A    between atoms: _363  and  _364
REMARK  144  A    between atoms: _363  and  _366
REMARK  145  A    between atoms: _366  and  _367
REMARK  146  A    between atoms: _372  and  _374
REMARK  147  A    between atoms: _374  and  _375
REMARK  148  A    between atoms: _374  and  _377
REMARK  149  A    between atoms: _377  and  _378
REMARK  150  A    between atoms: _388  and  _390
REMARK  151  A    between atoms: _390  and  _391
REMARK  152  A    between atoms: _390  and  _393
REMARK  153  A    between atoms: _393  and  _394
REMARK  154  A    between atoms: _400  and  _402
REMARK  155  A    between atoms: _402  and  _403
REMARK  156  A    between atoms: _402  and  _405
REMARK  157  A    between atoms: _405  and  _406
REMARK  158  A    between atoms: _409  and  _411
REMARK  159  A    between atoms: _411  and  _412
REMARK  160  A    between atoms: _411  and  _414
REMARK  161  A    between atoms: _414  and  _415
REMARK  162  A    between atoms: _418  and  _420
REMARK  163  A    between atoms: _420  and  _421
REMARK  164  A    between atoms: _420  and  _423
REMARK  165  A    between atoms: _423  and  _424
REMARK  166  A    between atoms: _424  and  _425
REMARK  167  A    between atoms: _425  and  _426
REMARK  168  A    between atoms: _435  and  _437
REMARK  169  A    between atoms: _437  and  _438
REMARK  170  A    between atoms: _437  and  _440
REMARK  171  A    between atoms: _440  and  _441
REMARK  172  A    between atoms: _446  and  _448
REMARK  173  A    between atoms: _448  and  _449
REMARK  174  A    between atoms: _448  and  _451
REMARK  175  A    between atoms: _451  and  _452
REMARK  176  A    between atoms: _452  and  _453
REMARK  177  A    between atoms: _453  and  _454
REMARK  178  A    between atoms: _463  and  _465
REMARK  179  A    between atoms: _465  and  _466
REMARK  180  A    between atoms: _469  and  _471
REMARK  181  A    between atoms: _471  and  _472
REMARK  182  A    between atoms: _474  and  _476
REMARK  183  A    between atoms: _476  and  _477
REMARK  184  A    between atoms: _476  and  _479
REMARK  185  A    between atoms: _479  and  _480
REMARK  186  A    between atoms: _490  and  _492
REMARK  187  A    between atoms: _492  and  _493
REMARK  188  A    between atoms: _492  and  _495
REMARK  189  A    between atoms: _495  and  _496
REMARK  190  A    between atoms: _497  and  _499
REMARK  191  A    between atoms: _499  and  _500
REMARK  192  A    between atoms: _503  and  _505
REMARK  193  A    between atoms: _505  and  _506
REMARK  194  A    between atoms: _505  and  _508
REMARK  195  A    between atoms: _508  and  _509
REMARK  196  A    between atoms: _512  and  _514
REMARK  197  A    between atoms: _514  and  _515
REMARK  198  A    between atoms: _514  and  _517
REMARK  199  A    between atoms: _517  and  _518
REMARK  200  A    between atoms: _523  and  _524
REMARK  201  A    between atoms: _526  and  _528
REMARK  202  A    between atoms: _528  and  _529
REMARK  203  A    between atoms: _528  and  _531
REMARK  204  A    between atoms: _531  and  _532
REMARK  205  A    between atoms: _534  and  _536
REMARK  206  A    between atoms: _536  and  _537
REMARK  207  A    between atoms: _536  and  _539
REMARK  208  A    between atoms: _539  and  _540
REMARK  209  A    between atoms: _546  and  _548
REMARK  210  A    between atoms: _548  and  _549
REMARK  211  A    between atoms: _548  and  _551
REMARK  212  A    between atoms: _551  and  _552
REMARK  213  A    between atoms: _555  and  _557
REMARK  214  A    between atoms: _557  and  _558
REMARK  215  A    between atoms: _557  and  _560
REMARK  216  A    between atoms: _560  and  _561
REMARK  217  A    between atoms: _563  and  _565
REMARK  218  A    between atoms: _565  and  _566
REMARK  219  A    between atoms: _565  and  _568
REMARK  220  A    between atoms: _568  and  _569
REMARK  221  A    between atoms: _574  and  _576
REMARK  222  A    between atoms: _576  and  _577
REMARK  223  A    between atoms: _576  and  _579
REMARK  224  A    between atoms: _579  and  _580
REMARK  225  A    between atoms: _585  and  _587
REMARK  226  A    between atoms: _587  and  _588
REMARK  227  A    between atoms: _587  and  _590
REMARK  228  A    between atoms: _590  and  _591
REMARK  229  A    between atoms: _594  and  _596
REMARK  230  A    between atoms: _596  and  _597
REMARK  231  A    between atoms: _600  and  _602
REMARK  232  A    between atoms: _602  and  _603
REMARK  233  A    between atoms: _602  and  _605
REMARK  234  A    between atoms: _605  and  _606
REMARK  235  A    between atoms: _611  and  _612
REMARK  236  A    between atoms: _614  and  _616
REMARK  237  A    between atoms: _616  and  _617
REMARK  238  A    between atoms: _616  and  _619
REMARK  239  A    between atoms: _619  and  _620
REMARK  240  A    between atoms: _625  and  _626
REMARK  241  A    between atoms: _628  and  _630
REMARK  242  A    between atoms: _630  and  _631
REMARK  243  A    between atoms: _630  and  _633
REMARK  244  A    between atoms: _636  and  _638
REMARK  245  A    between atoms: _638  and  _639
REMARK  246  A    between atoms: _638  and  _641
REMARK  247  A    between atoms: _641  and  _642
REMARK  248  A    between atoms: _647  and  _649
REMARK  249  A    between atoms: _649  and  _650
REMARK  250  A    between atoms: _653  and  _655
REMARK  251  A    between atoms: _655  and  _656
REMARK  252  A    between atoms: _655  and  _658
REMARK  253  A    between atoms: _658  and  _659
REMARK  254  A    between atoms: _659  and  _660
REMARK  255  A    between atoms: _660  and  _661
REMARK  256  A    between atoms: _670  and  _672
REMARK  257  A    between atoms: _672  and  _673
REMARK  258  A    between atoms: _672  and  _675
REMARK  259  A    between atoms: _675  and  _676
REMARK  260  A    between atoms: _679  and  _681
REMARK  261  A    between atoms: _681  and  _682
REMARK  262  A    between atoms: _681  and  _684
REMARK  263  A    between atoms: _684  and  _685
REMARK  264  A    between atoms: _688  and  _690
REMARK  265  A    between atoms: _690  and  _691
REMARK  266  A    between atoms: _690  and  _693
REMARK  267  A    between atoms: _693  and  _694
REMARK  268  A    between atoms: _724  and  _725
REMARK  269  A    between atoms: _725  and  _731
REMARK                            x       y       z     vdW  Elec       q    Type
REMARK                         _______ _______ _______ _____ _____    ______ ____
ROOT
ATOM      1  CA  TYR A   2      14.926  21.857  14.909  0.00  0.00    +0.141 C 
ENDROOT
BRANCH   1   4
ATOM      2  C   PRO A   1      14.044  23.850  16.012  0.00  0.00    +0.239 C 
ATOM      3  O   PRO A   1      13.632  23.181  16.963  0.00  0.00    -0.274 OA
ATOM      4  N   TYR A   2      14.605  23.272  14.924  0.00  0.00    -0.298 N 
ATOM      5  H   TYR A   2      14.809  23.852  14.085  0.00  0.00    +0.150 HD
BRANCH   2   7
ATOM      6  N   PRO A   1      14.568  25.900  14.834  0.00  0.00    -0.210 NA
ATOM      7  CA  PRO A   1      13.764  25.352  15.931  0.00  0.00    +0.149 C 
ATOM      8  CB  PRO A   1      12.345  25.638  15.502  0.00  0.00    +0.028 C 
ATOM      9  CG  PRO A   1      12.351  25.815  14.018  0.00  0.00    +0.021 C 
ATOM     10  CD  PRO A   1      13.727  26.410  13.721  0.00  0.00    +0.089 C 
ENDBRANCH   2   7
ENDBRANCH   1   4
BRANCH   1  11
ATOM     11  C   TYR A   2      16.411  21.570  14.942  0.00  0.00    +0.227 C 
ATOM     12  O   TYR A   2      16.833  20.444  14.667  0.00  0.00    -0.286 OA
ENDBRANCH   1  11
BRANCH   1  13
ATOM     13  CB  TYR A   2      14.299  21.181  13.710  0.00  0.00    +0.054 C 
BRANCH  13  14
ATOM     14  CG  TYR A   2      13.025  20.426  13.978  0.00  0.00    -0.020 A 
ATOM     15  CD2 TYR A   2      13.184  19.107  14.439  0.00  0.00    -0.001 A 
ATOM     16  CE2 TYR A   2      12.069  18.336  14.752  0.00  0.00    +0.036 A 
ATOM     17  CZ  TYR A   2      10.811  18.822  14.529  0.00  0.00    +0.134 A 
ATOM     18  CE1 TYR A   2      10.626  20.127  14.067  0.00  0.00    +0.036 A 
ATOM     19  CD1 TYR A   2      11.752  20.917  13.796  0.00  0.00    -0.001 A 
BRANCH  17  20
ATOM     20  OH  TYR A   2       9.760  17.977  14.766  0.00  0.00    -0.506 OA
ATOM     21  HH  TYR A   2       9.842  17.180  14.185  0.00  0.00    +0.292 HD
ENDBRANCH  17  20
ENDBRANCH  13  14
ENDBRANCH   1  13
TORSDOF 6
REMARK  Name = ../refined-set-2016/1b3h/1b3h_pocket.pdb
REMARK  269 active torsions:
REMARK  status: ('A' for Active; 'I' for Inactive)
REMARK    1  A    between atoms: _1  and  _3
REMARK    2  A    between atoms: _3  and  _4
REMARK    3  A    between atoms: _3  and  _6
REMARK    4  A    between atoms: _6  and  _7
REMARK    5  A    between atoms: _12  and  _14
REMARK    6  A    between atoms: _14  and  _15
REMARK    7  A    between atoms: _17  and  _19
REMARK    8  A    between atoms: _19  and  _20
REMARK    9  A    between atoms: _19  and  _22
REMARK   10  A    between atoms: _22  and  _23
REMARK   11  A    between atoms: _25  and  _27
REMARK   12  A    between atoms: _27  and  _28
REMARK   13  A    between atoms: _27  and  _30
REMARK   14  A    between atoms: _30  and  _31
REMARK   15  A    between atoms: _31  and  _32
REMARK   16  A    between atoms: _37  and  _39
REMARK   17  A    between atoms: _39  and  _40
REMARK   18  A    between atoms: _39  and  _42
REMARK   19  A    between atoms: _42  and  _43
REMARK   20  A    between atoms: _46  and  _48
REMARK   21  A    between atoms: _48  and  _49
REMARK   22  A    between atoms: _48  and  _51
REMARK   23  A    between atoms: _51  and  _52
REMARK   24  A    between atoms: _52  and  _53
REMARK   25  A    between atoms: _56  and  _58
REMARK   26  A    between atoms: _58  and  _59
REMARK   27  A    between atoms: _61  and  _63
REMARK   28  A    between atoms: _63  and  _64
REMARK   29  A    between atoms: _63  and  _66
REMARK   30  A    between atoms: _70  and  _71
REMARK   31  A    between atoms: _76  and  _78
REMARK   32  A    between atoms: _78  and  _79
REMARK   33  A    between atoms: _78  and  _81
REMARK   34  A    between atoms: _81  and  _82
REMARK   35  A    between atoms: _82  and  _83
REMARK   36  A    between atoms: _86  and  _88
REMARK   37  A    between atoms: _88  and  _89
REMARK   38  A    between atoms: _88  and  _91
REMARK   39  A    between atoms: _91  and  _92
REMARK   40  A    between atoms: _94  and  _96
REMARK   41  A    between atoms: _96  and  _97
REMARK   42  A    between atoms: _96  and  _99
REMARK   43  A    between atoms: _99  and  _100
REMARK   44  A    between atoms: _105  and  _107
REMARK   45  A    between atoms: _107  and  _108
REMARK   46  A    between atoms: _107  and  _110
REMARK   47  A    between atoms: _110  and  _111
REMARK   48  A    between atoms: _111  and  _112
REMARK   49  A    between atoms: _112  and  _113
REMARK   50  A    between atoms: _123  and  _124
REMARK   51  A    between atoms: _129  and  _131
REMARK   52  A    between atoms: _131  and  _132
REMARK   53  A    between atoms: _131  and  _134
REMARK   54  A    between atoms: _134  and  _135
REMARK   55  A    between atoms: _140  and  _141
REMARK   56  A    between atoms: _143  and  _145
REMARK   57  A    between atoms: _145  and  _146
REMARK   58  A    between atoms: _145  and  _148
REMARK   59  A    between atoms: _148  and  _149
REMARK   60  A    between atoms: _154  and  _155
REMARK   61  A    between atoms: _157  and  _159
REMARK   62  A    between atoms: _159  and  _160
REMARK   63  A    between atoms: _159  and  _162
REMARK   64  A    between atoms: _162  and  _163
REMARK   65  A    between atoms: _168  and  _169
REMARK   66  A    between atoms: _171  and  _173
REMARK   67  A    between atoms: _173  and  _174
REMARK   68  A    between atoms: _173  and  _176
REMARK   69  A    between atoms: _179  and  _181
REMARK   70  A    between atoms: _181  and  _182
REMARK   71  A    between atoms: _181  and  _184
REMARK   72  A    between atoms: _184  and  _185
REMARK   73  A    between atoms: _191  and  _192
REMARK   74  A    between atoms: _197  and  _199
REMARK   75  A    between atoms: _199  and  _200
REMARK   76  A    between atoms: _199  and  _202
REMARK   77  A    between atoms: _202  and  _203
REMARK   78  A    between atoms: _205  and  _207
REMARK   79  A    between atoms: _207  and  _208
REMARK   80  A    between atoms: _207  and  _210
REMARK   81  A    between atoms: _210  and  _211
REMARK   82  A    between atoms: _216  and  _217
REMARK   83  A    between atoms: _219  and  _221
REMARK   84  A    between atoms: _221  and  _222
REMARK   85  A    between atoms: _221  and  _224
REMARK   86  A    between atoms: _224  and  _225
REMARK   87  A    between atoms: _230  and  _232
REMARK   88  A    between atoms: _232  and  _233
REMARK   89  A    between atoms: _232  and  _235
REMARK   90  A    between atoms: _235  and  _236
REMARK   91  A    between atoms: _241  and  _243
REMARK   92  A    between atoms: _243  and  _244
REMARK   93  A    between atoms: _243  and  _246
REMARK   94  A    between atoms: _246  and  _247
REMARK   95  A    between atoms: _247  and  _248
REMARK   96  A    between atoms: _250  and  _252
REMARK   97  A    between atoms: _252  and  _253
REMARK   98  A    between atoms: _252  and  _255
REMARK   99  A    between atoms: _255  and  _256
REMARK  100  A    between atoms: _261  and  _262
REMARK  101  A    between atoms: _264  and  _266
REMARK  102  A    between atoms: _266  and  _267
REMARK  103  A    between atoms: _266  and  _269
REMARK  104  A    between atoms: _269  and  _270
REMARK  105  A    between atoms: _273  and  _275
REMARK  106  A    between atoms: _275  and  _276
REMARK  107  A    between atoms: _275  and  _278
REMARK  108  A    between atoms: _278  and  _279
REMARK  109  A    between atoms: _279  and  _496
REMARK  110  A    between atoms: _280  and  _282
REMARK  111  A    between atoms: _282  and  _283
REMARK  112  A    between atoms: _282  and  _285
REMARK  113  A    between atoms: _285  and  _286
REMARK  114  A    between atoms: _289  and  _291
REMARK  115  A    between atoms: _291  and  _292
REMARK  116  A    between atoms: _291  and  _294
REMARK  117  A    between atoms: _294  and  _295
REMARK  118  A    between atoms: _300  and  _301
REMARK  119  A    between atoms: _303  and  _305
REMARK  120  A    between atoms: _305  and  _306
REMARK  121  A    between atoms: _305  and  _308
REMARK  122  A    between atoms: _308  and  _309
REMARK  123  A    between atoms: _314  and  _315
REMARK  124  A    between atoms: _317  and  _319
REMARK  125  A    between atoms: _319  and  _320
REMARK  126  A    between atoms: _319  and  _322
REMARK  127  A    between atoms: _322  and  _323
REMARK  128  A    between atoms: _323  and  _324
REMARK  129  A    between atoms: _327  and  _329
REMARK  130  A    between atoms: _329  and  _330
REMARK  131  A    between atoms: _329  and  _332
REMARK  132  A    between atoms: _332  and  _333
REMARK  133  A    between atoms: _338  and  _339
REMARK  134  A    between atoms: _341  and  _343
REMARK  135  A    between atoms: _343  and  _344
REMARK  136  A    between atoms: _343  and  _346
REMARK  137  A    between atoms: _346  and  _347
REMARK  138  A    between atoms: _352  and  _354
REMARK  139  A    between atoms: _354  and  _355
REMARK  140  A    between atoms: _354  and  _357
REMARK  141  A    between atoms: _357  and  _358
REMARK  142  A    between atoms: _361  and  _363
REMARK  143  A    between atoms: _363  and  _364
REMARK  144  A    between atoms: _363  and  _366
REMARK  145  A    between atoms: _366  and  _367
REMARK  146  A    between atoms: _372  and  _374
REMARK  147  A    between atoms: _374  and  _375
REMARK  148  A    between atoms: _374  and  _377
REMARK  149  A    between atoms: _377  and  _378
REMARK  150  A    between atoms: _388  and  _390
REMARK  151  A    between atoms: _390  and  _391
REMARK  152  A    between atoms: _390  and  _393
REMARK  153  A    between atoms: _393  and  _394
REMARK  154  A    between atoms: _400  and  _402
REMARK  155  A    between atoms: _402  and  _403
REMARK  156  A    between atoms: _402  and  _405
REMARK  157  A    between atoms: _405  and  _406
REMARK  158  A    between atoms: _409  and  _411
REMARK  159  A    between atoms: _411  and  _412
REMARK  160  A    between atoms: _411  and  _414
REMARK  161  A    between atoms: _414  and  _415
REMARK  162  A    between atoms: _418  and  _420
REMARK  163  A    between atoms: _420  and  _421
REMARK  164  A    between atoms: _420  and  _423
REMARK  165  A    between atoms: _423  and  _424
REMARK  166  A    between atoms: _424  and  _425
REMARK  167  A    between atoms: _425  and  _426
REMARK  168  A    between atoms: _435  and  _437
REMARK  169  A    between atoms: _437  and  _438
REMARK  170  A    between atoms: _437  and  _440
REMARK  171  A    between atoms: _440  and  _441
REMARK  172  A    between atoms: _446  and  _448
REMARK  173  A    between atoms: _448  and  _449
REMARK  174  A    between atoms: _448  and  _451
REMARK  175  A    between atoms: _451  and  _452
REMARK  176  A    between atoms: _452  and  _453
REMARK  177  A    between atoms: _453  and  _454
REMARK  178  A    between atoms: _463  and  _465
REMARK  179  A    between atoms: _465  and  _466
REMARK  180  A    between atoms: _469  and  _471
REMARK  181  A    between atoms: _471  and  _472
REMARK  182  A    between atoms: _474  and  _476
REMARK  183  A    between atoms: _476  and  _477
REMARK  184  A    between atoms: _476  and  _479
REMARK  185  A    between atoms: _479  and  _480
REMARK  186  A    between atoms: _490  and  _492
REMARK  187  A    between atoms: _492  and  _493
REMARK  188  A    between atoms: _492  and  _495
REMARK  189  A    between atoms: _495  and  _496
REMARK  190  A    between atoms: _497  and  _499
REMARK  191  A    between atoms: _499  and  _500
REMARK  192  A    between atoms: _503  and  _505
REMARK  193  A    between atoms: _505  and  _506
REMARK  194  A    between atoms: _505  and  _508
REMARK  195  A    between atoms: _508  and  _509
REMARK  196  A    between atoms: _512  and  _514
REMARK  197  A    between atoms: _514  and  _515
REMARK  198  A    between atoms: _514  and  _517
REMARK  199  A    between atoms: _517  and  _518
REMARK  200  A    between atoms: _523  and  _524
REMARK  201  A    between atoms: _526  and  _528
REMARK  202  A    between atoms: _528  and  _529
REMARK  203  A    between atoms: _528  and  _531
REMARK  204  A    between atoms: _531  and  _532
REMARK  205  A    between atoms: _534  and  _536
REMARK  206  A    between atoms: _536  and  _537
REMARK  207  A    between atoms: _536  and  _539
REMARK  208  A    between atoms: _539  and  _540
REMARK  209  A    between atoms: _546  and  _548
REMARK  210  A    between atoms: _548  and  _549
REMARK  211  A    between atoms: _548  and  _551
REMARK  212  A    between atoms: _551  and  _552
REMARK  213  A    between atoms: _555  and  _557
REMARK  214  A    between atoms: _557  and  _558
REMARK  215  A    between atoms: _557  and  _560
REMARK  216  A    between atoms: _560  and  _561
REMARK  217  A    between atoms: _563  and  _565
REMARK  218  A    between atoms: _565  and  _566
REMARK  219  A    between atoms: _565  and  _568
REMARK  220  A    between atoms: _568  and  _569
REMARK  221  A    between atoms: _574  and  _576
REMARK  222  A    between atoms: _576  and  _577
REMARK  223  A    between atoms: _576  and  _579
REMARK  224  A    between atoms: _579  and  _580
REMARK  225  A    between atoms: _585  and  _587
REMARK  226  A    between atoms: _587  and  _588
REMARK  227  A    between atoms: _587  and  _590
REMARK  228  A    between atoms: _590  and  _591
REMARK  229  A    between atoms: _594  and  _596
REMARK  230  A    between atoms: _596  and  _597
REMARK  231  A    between atoms: _600  and  _602
REMARK  232  A    between atoms: _602  and  _603
REMARK  233  A    between atoms: _602  and  _605
REMARK  234  A    between atoms: _605  and  _606
REMARK  235  A    between atoms: _611  and  _612
REMARK  236  A    between atoms: _614  and  _616
REMARK  237  A    between atoms: _616  and  _617
REMARK  238  A    between atoms: _616  and  _619
REMARK  239  A    between atoms: _619  and  _620
REMARK  240  A    between atoms: _625  and  _626
REMARK  241  A    between atoms: _628  and  _630
REMARK  242  A    between atoms: _630  and  _631
REMARK  243  A    between atoms: _630  and  _633
REMARK  244  A    between atoms: _636  and  _638
REMARK  245  A    between atoms: _638  and  _639
REMARK  246  A    between atoms: _638  and  _641
REMARK  247  A    between atoms: _641  and  _642
REMARK  248  A    between atoms: _647  and  _649
REMARK  249  A    between atoms: _649  and  _650
REMARK  250  A    between atoms: _653  and  _655
REMARK  251  A    between atoms: _655  and  _656
REMARK  252  A    between atoms: _655  and  _658
REMARK  253  A    between atoms: _658  and  _659
REMARK  254  A    between atoms: _659  and  _660
REMARK  255  A    between atoms: _660  and  _661
REMARK  256  A    between atoms: _670  and  _672
REMARK  257  A    between atoms: _672  and  _673
REMARK  258  A    between atoms: _672  and  _675
REMARK  259  A    between atoms: _675  and  _676
REMARK  260  A    between atoms: _679  and  _681
REMARK  261  A    between atoms: _681  and  _682
REMARK  262  A    between atoms: _681  and  _684
REMARK  263  A    between atoms: _684  and  _685
REMARK  264  A    between atoms: _688  and  _690
REMARK  265  A    between atoms: _690  and  _691
REMARK  266  A    between atoms: _690  and  _693
REMARK  267  A    between atoms: _693  and  _694
REMARK  268  A    between atoms: _724  and  _725
REMARK  269  A    between atoms: _725  and  _731
REMARK                            x       y       z     vdW  Elec       q    Type
REMARK                         _______ _______ _______ _____ _____    ______ ____
ROOT
ATOM      1  CG  TYR A   1      15.817  16.063  13.566  0.00  0.00    -0.020 A 
ATOM      2  CD2 TYR A   1      14.717  15.609  14.278  0.00  0.00    -0.001 A 
ATOM      3  CE2 TYR A   1      13.960  14.538  13.828  0.00  0.00    +0.036 A 
ATOM      4  CZ  TYR A   1      14.308  13.914  12.644  0.00  0.00    +0.134 A 
ATOM      5  CE1 TYR A   1      15.418  14.344  11.932  0.00  0.00    +0.036 A 
ATOM      6  CD1 TYR A   1      16.133  15.433  12.372  0.00  0.00    -0.001 A 
ENDROOT
BRANCH   4   7
ATOM      7  OH  TYR A   1      13.571  12.848  12.202  0.00  0.00    -0.506 OA
ATOM      8  HH  TYR A   1      13.211  13.048  11.302  0.00  0.00    +0.292 HD
ENDBRANCH   4   7
BRANCH   1   9
ATOM      9  CB  TYR A   1      16.608  17.269  14.073  0.00  0.00    +0.051 C 
BRANCH   9  10
ATOM     10  CA  TYR A   1      17.279  16.960  15.415  0.00  0.00    +0.137 C 
BRANCH  10  11
ATOM     11  N   TYR A   1      17.498  18.186  16.184  0.00  0.00    -0.239 NA
ATOM     12  H   TYR A   1      17.243  19.098  15.755  0.00  0.00    +0.142 HD
ENDBRANCH  10  11
BRANCH  10  13
ATOM     13  C   TYR A   1      18.619  16.238  15.233  0.00  0.00    +0.224 C 
ATOM     14  O   TYR A   1      18.645  15.014  15.234  0.00  0.00    -0.287 OA
ENDBRANCH  10  13
ENDBRANCH   9  10
ENDBRANCH   1   9
TORSDOF 5
REMARK  Name = ../refined-set-2016/1b3h/1b3h_pocket.pdb
REMARK  269 active torsions:
REMARK  status: ('A' for Active; 'I' for Inactive)
REMARK    1  A    between atoms: _1  and  _3
REMARK    2  A    between atoms: _3  and  _4
REMARK    3  A    between atoms: _3  and  _6
REMARK    4  A    between atoms: _6  and  _7
REMARK    5  A    between atoms: _12  and  _14
REMARK    6  A    between atoms: _14  and  _15
REMARK    7  A    between atoms: _17  and  _19
REMARK    8  A    between atoms: _19  and  _20
REMARK    9  A    between atoms: _19  and  _22
REMARK   10  A    between atoms: _22  and  _23
REMARK   11  A    between atoms: _25  and  _27
REMARK   12  A    between atoms: _27  and  _28
REMARK   13  A    between atoms: _27  and  _30
REMARK   14  A    between atoms: _30  and  _31
REMARK   15  A    between atoms: _31  and  _32
REMARK   16  A    between atoms: _37  and  _39
REMARK   17  A    between atoms: _39  and  _40
REMARK   18  A    between atoms: _39  and  _42
REMARK   19  A    between atoms: _42  and  _43
REMARK   20  A    between atoms: _46  and  _48
REMARK   21  A    between atoms: _48  and  _49
REMARK   22  A    between atoms: _48  and  _51
REMARK   23  A    between atoms: _51  and  _52
REMARK   24  A    between atoms: _52  and  _53
REMARK   25  A    between atoms: _56  and  _58
REMARK   26  A    between atoms: _58  and  _59
REMARK   27  A    between atoms: _61  and  _63
REMARK   28  A    between atoms: _63  and  _64
REMARK   29  A    between atoms: _63  and  _66
REMARK   30  A    between atoms: _70  and  _71
REMARK   31  A    between atoms: _76  and  _78
REMARK   32  A    between atoms: _78  and  _79
REMARK   33  A    between atoms: _78  and  _81
REMARK   34  A    between atoms: _81  and  _82
REMARK   35  A    between atoms: _82  and  _83
REMARK   36  A    between atoms: _86  and  _88
REMARK   37  A    between atoms: _88  and  _89
REMARK   38  A    between atoms: _88  and  _91
REMARK   39  A    between atoms: _91  and  _92
REMARK   40  A    between atoms: _94  and  _96
REMARK   41  A    between atoms: _96  and  _97
REMARK   42  A    between atoms: _96  and  _99
REMARK   43  A    between atoms: _99  and  _100
REMARK   44  A    between atoms: _105  and  _107
REMARK   45  A    between atoms: _107  and  _108
REMARK   46  A    between atoms: _107  and  _110
REMARK   47  A    between atoms: _110  and  _111
REMARK   48  A    between atoms: _111  and  _112
REMARK   49  A    between atoms: _112  and  _113
REMARK   50  A    between atoms: _123  and  _124
REMARK   51  A    between atoms: _129  and  _131
REMARK   52  A    between atoms: _131  and  _132
REMARK   53  A    between atoms: _131  and  _134
REMARK   54  A    between atoms: _134  and  _135
REMARK   55  A    between atoms: _140  and  _141
REMARK   56  A    between atoms: _143  and  _145
REMARK   57  A    between atoms: _145  and  _146
REMARK   58  A    between atoms: _145  and  _148
REMARK   59  A    between atoms: _148  and  _149
REMARK   60  A    between atoms: _154  and  _155
REMARK   61  A    between atoms: _157  and  _159
REMARK   62  A    between atoms: _159  and  _160
REMARK   63  A    between atoms: _159  and  _162
REMARK   64  A    between atoms: _162  and  _163
REMARK   65  A    between atoms: _168  and  _169
REMARK   66  A    between atoms: _171  and  _173
REMARK   67  A    between atoms: _173  and  _174
REMARK   68  A    between atoms: _173  and  _176
REMARK   69  A    between atoms: _179  and  _181
REMARK   70  A    between atoms: _181  and  _182
REMARK   71  A    between atoms: _181  and  _184
REMARK   72  A    between atoms: _184  and  _185
REMARK   73  A    between atoms: _191  and  _192
REMARK   74  A    between atoms: _197  and  _199
REMARK   75  A    between atoms: _199  and  _200
REMARK   76  A    between atoms: _199  and  _202
REMARK   77  A    between atoms: _202  and  _203
REMARK   78  A    between atoms: _205  and  _207
REMARK   79  A    between atoms: _207  and  _208
REMARK   80  A    between atoms: _207  and  _210
REMARK   81  A    between atoms: _210  and  _211
REMARK   82  A    between atoms: _216  and  _217
REMARK   83  A    between atoms: _219  and  _221
REMARK   84  A    between atoms: _221  and  _222
REMARK   85  A    between atoms: _221  and  _224
REMARK   86  A    between atoms: _224  and  _225
REMARK   87  A    between atoms: _230  and  _232
REMARK   88  A    between atoms: _232  and  _233
REMARK   89  A    between atoms: _232  and  _235
REMARK   90  A    between atoms: _235  and  _236
REMARK   91  A    between atoms: _241  and  _243
REMARK   92  A    between atoms: _243  and  _244
REMARK   93  A    between atoms: _243  and  _246
REMARK   94  A    between atoms: _246  and  _247
REMARK   95  A    between atoms: _247  and  _248
REMARK   96  A    between atoms: _250  and  _252
REMARK   97  A    between atoms: _252  and  _253
REMARK   98  A    between atoms: _252  and  _255
REMARK   99  A    between atoms: _255  and  _256
REMARK  100  A    between atoms: _261  and  _262
REMARK  101  A    between atoms: _264  and  _266
REMARK  102  A    between atoms: _266  and  _267
REMARK  103  A    between atoms: _266  and  _269
REMARK  104  A    between atoms: _269  and  _270
REMARK  105  A    between atoms: _273  and  _275
REMARK  106  A    between atoms: _275  and  _276
REMARK  107  A    between atoms: _275  and  _278
REMARK  108  A    between atoms: _278  and  _279
REMARK  109  A    between atoms: _279  and  _496
REMARK  110  A    between atoms: _280  and  _282
REMARK  111  A    between atoms: _282  and  _283
REMARK  112  A    between atoms: _282  and  _285
REMARK  113  A    between atoms: _285  and  _286
REMARK  114  A    between atoms: _289  and  _291
REMARK  115  A    between atoms: _291  and  _292
REMARK  116  A    between atoms: _291  and  _294
REMARK  117  A    between atoms: _294  and  _295
REMARK  118  A    between atoms: _300  and  _301
REMARK  119  A    between atoms: _303  and  _305
REMARK  120  A    between atoms: _305  and  _306
REMARK  121  A    between atoms: _305  and  _308
REMARK  122  A    between atoms: _308  and  _309
REMARK  123  A    between atoms: _314  and  _315
REMARK  124  A    between atoms: _317  and  _319
REMARK  125  A    between atoms: _319  and  _320
REMARK  126  A    between atoms: _319  and  _322
REMARK  127  A    between atoms: _322  and  _323
REMARK  128  A    between atoms: _323  and  _324
REMARK  129  A    between atoms: _327  and  _329
REMARK  130  A    between atoms: _329  and  _330
REMARK  131  A    between atoms: _329  and  _332
REMARK  132  A    between atoms: _332  and  _333
REMARK  133  A    between atoms: _338  and  _339
REMARK  134  A    between atoms: _341  and  _343
REMARK  135  A    between atoms: _343  and  _344
REMARK  136  A    between atoms: _343  and  _346
REMARK  137  A    between atoms: _346  and  _347
REMARK  138  A    between atoms: _352  and  _354
REMARK  139  A    between atoms: _354  and  _355
REMARK  140  A    between atoms: _354  and  _357
REMARK  141  A    between atoms: _357  and  _358
REMARK  142  A    between atoms: _361  and  _363
REMARK  143  A    between atoms: _363  and  _364
REMARK  144  A    between atoms: _363  and  _366
REMARK  145  A    between atoms: _366  and  _367
REMARK  146  A    between atoms: _372  and  _374
REMARK  147  A    between atoms: _374  and  _375
REMARK  148  A    between atoms: _374  and  _377
REMARK  149  A    between atoms: _377  and  _378
REMARK  150  A    between atoms: _388  and  _390
REMARK  151  A    between atoms: _390  and  _391
REMARK  152  A    between atoms: _390  and  _393
REMARK  153  A    between atoms: _393  and  _394
REMARK  154  A    between atoms: _400  and  _402
REMARK  155  A    between atoms: _402  and  _403
REMARK  156  A    between atoms: _402  and  _405
REMARK  157  A    between atoms: _405  and  _406
REMARK  158  A    between atoms: _409  and  _411
REMARK  159  A    between atoms: _411  and  _412
REMARK  160  A    between atoms: _411  and  _414
REMARK  161  A    between atoms: _414  and  _415
REMARK  162  A    between atoms: _418  and  _420
REMARK  163  A    between atoms: _420  and  _421
REMARK  164  A    between atoms: _420  and  _423
REMARK  165  A    between atoms: _423  and  _424
REMARK  166  A    between atoms: _424  and  _425
REMARK  167  A    between atoms: _425  and  _426
REMARK  168  A    between atoms: _435  and  _437
REMARK  169  A    between atoms: _437  and  _438
REMARK  170  A    between atoms: _437  and  _440
REMARK  171  A    between atoms: _440  and  _441
REMARK  172  A    between atoms: _446  and  _448
REMARK  173  A    between atoms: _448  and  _449
REMARK  174  A    between atoms: _448  and  _451
REMARK  175  A    between atoms: _451  and  _452
REMARK  176  A    between atoms: _452  and  _453
REMARK  177  A    between atoms: _453  and  _454
REMARK  178  A    between atoms: _463  and  _465
REMARK  179  A    between atoms: _465  and  _466
REMARK  180  A    between atoms: _469  and  _471
REMARK  181  A    between atoms: _471  and  _472
REMARK  182  A    between atoms: _474  and  _476
REMARK  183  A    between atoms: _476  and  _477
REMARK  184  A    between atoms: _476  and  _479
REMARK  185  A    between atoms: _479  and  _480
REMARK  186  A    between atoms: _490  and  _492
REMARK  187  A    between atoms: _492  and  _493
REMARK  188  A    between atoms: _492  and  _495
REMARK  189  A    between atoms: _495  and  _496
REMARK  190  A    between atoms: _497  and  _499
REMARK  191  A    between atoms: _499  and  _500
REMARK  192  A    between atoms: _503  and  _505
REMARK  193  A    between atoms: _505  and  _506
REMARK  194  A    between atoms: _505  and  _508
REMARK  195  A    between atoms: _508  and  _509
REMARK  196  A    between atoms: _512  and  _514
REMARK  197  A    between atoms: _514  and  _515
REMARK  198  A    between atoms: _514  and  _517
REMARK  199  A    between atoms: _517  and  _518
REMARK  200  A    between atoms: _523  and  _524
REMARK  201  A    between atoms: _526  and  _528
REMARK  202  A    between atoms: _528  and  _529
REMARK  203  A    between atoms: _528  and  _531
REMARK  204  A    between atoms: _531  and  _532
REMARK  205  A    between atoms: _534  and  _536
REMARK  206  A    between atoms: _536  and  _537
REMARK  207  A    between atoms: _536  and  _539
REMARK  208  A    between atoms: _539  and  _540
REMARK  209  A    between atoms: _546  and  _548
REMARK  210  A    between atoms: _548  and  _549
REMARK  211  A    between atoms: _548  and  _551
REMARK  212  A    between atoms: _551  and  _552
REMARK  213  A    between atoms: _555  and  _557
REMARK  214  A    between atoms: _557  and  _558
REMARK  215  A    between atoms: _557  and  _560
REMARK  216  A    between atoms: _560  and  _561
REMARK  217  A    between atoms: _563  and  _565
REMARK  218  A    between atoms: _565  and  _566
REMARK  219  A    between atoms: _565  and  _568
REMARK  220  A    between atoms: _568  and  _569
REMARK  221  A    between atoms: _574  and  _576
REMARK  222  A    between atoms: _576  and  _577
REMARK  223  A    between atoms: _576  and  _579
REMARK  224  A    between atoms: _579  and  _580
REMARK  225  A    between atoms: _585  and  _587
REMARK  226  A    between atoms: _587  and  _588
REMARK  227  A    between atoms: _587  and  _590
REMARK  228  A    between atoms: _590  and  _591
REMARK  229  A    between atoms: _594  and  _596
REMARK  230  A    between atoms: _596  and  _597
REMARK  231  A    between atoms: _600  and  _602
REMARK  232  A    between atoms: _602  and  _603
REMARK  233  A    between atoms: _602  and  _605
REMARK  234  A    between atoms: _605  and  _606
REMARK  235  A    between atoms: _611  and  _612
REMARK  236  A    between atoms: _614  and  _616
REMARK  237  A    between atoms: _616  and  _617
REMARK  238  A    between atoms: _616  and  _619
REMARK  239  A    between atoms: _619  and  _620
REMARK  240  A    between atoms: _625  and  _626
REMARK  241  A    between atoms: _628  and  _630
REMARK  242  A    between atoms: _630  and  _631
REMARK  243  A    between atoms: _630  and  _633
REMARK  244  A    between atoms: _636  and  _638
REMARK  245  A    between atoms: _638  and  _639
REMARK  246  A    between atoms: _638  and  _641
REMARK  247  A    between atoms: _641  and  _642
REMARK  248  A    between atoms: _647  and  _649
REMARK  249  A    between atoms: _649  and  _650
REMARK  250  A    between atoms: _653  and  _655
REMARK  251  A    between atoms: _655  and  _656
REMARK  252  A    between atoms: _655  and  _658
REMARK  253  A    between atoms: _658  and  _659
REMARK  254  A    between atoms: _659  and  _660
REMARK  255  A    between atoms: _660  and  _661
REMARK  256  A    between atoms: _670  and  _672
REMARK  257  A    between atoms: _672  and  _673
REMARK  258  A    between atoms: _672  and  _675
REMARK  259  A    between atoms: _675  and  _676
REMARK  260  A    between atoms: _679  and  _681
REMARK  261  A    between atoms: _681  and  _682
REMARK  262  A    between atoms: _681  and  _684
REMARK  263  A    between atoms: _684  and  _685
REMARK  264  A    between atoms: _688  and  _690
REMARK  265  A    between atoms: _690  and  _691
REMARK  266  A    between atoms: _690  and  _693
REMARK  267  A    between atoms: _693  and  _694
REMARK  268  A    between atoms: _724  and  _725
REMARK  269  A    between atoms: _725  and  _731
REMARK                            x       y       z     vdW  Elec       q    Type
REMARK                         _______ _______ _______ _____ _____    ______ ____
ROOT
ATOM      1  CG  TYR A   1      16.363  14.434  18.515  0.00  0.00    -0.020 A 
ATOM      2  CD2 TYR A   1      16.710  14.989  19.727  0.00  0.00    -0.001 A 
ATOM      3  CE2 TYR A   1      16.011  16.062  20.269  0.00  0.00    +0.036 A 
ATOM      4  CZ  TYR A   1      14.864  16.472  19.629  0.00  0.00    +0.134 A 
ATOM      5  CE1 TYR A   1      14.469  15.915  18.419  0.00  0.00    +0.036 A 
ATOM      6  CD1 TYR A   1      15.238  14.893  17.879  0.00  0.00    -0.001 A 
ENDROOT
BRANCH   4   7
ATOM      7  OH  TYR A   1      14.125  17.484  20.175  0.00  0.00    -0.506 OA
ATOM      8  HH  TYR A   1      14.102  18.250  19.548  0.00  0.00    +0.292 HD
ENDBRANCH   4   7
BRANCH   1   9
ATOM      9  CB  TYR A   1      17.170  13.303  17.896  0.00  0.00    +0.051 C 
BRANCH   9  10
ATOM     10  CA  TYR A   1      18.601  13.164  18.386  0.00  0.00    +0.137 C 
BRANCH  10  11
ATOM     11  N   TYR A   1      19.407  14.399  18.318  0.00  0.00    -0.239 NA
ATOM     12  H   TYR A   1      19.016  15.273  17.911  0.00  0.00    +0.142 HD
ENDBRANCH  10  11
BRANCH  10  13
ATOM     13  C   TYR A   1      19.258  12.079  17.542  0.00  0.00    +0.224 C 
ATOM     14  O   TYR A   1      19.179  10.926  17.945  0.00  0.00    -0.287 OA
ENDBRANCH  10  13
ENDBRANCH   9  10
ENDBRANCH   1   9
TORSDOF 5
REMARK  Name = ../refined-set-2016/1b3h/1b3h_pocket.pdb
REMARK  269 active torsions:
REMARK  status: ('A' for Active; 'I' for Inactive)
REMARK    1  A    between atoms: _1  and  _3
REMARK    2  A    between atoms: _3  and  _4
REMARK    3  A    between atoms: _3  and  _6
REMARK    4  A    between atoms: _6  and  _7
REMARK    5  A    between atoms: _12  and  _14
REMARK    6  A    between atoms: _14  and  _15
REMARK    7  A    between atoms: _17  and  _19
REMARK    8  A    between atoms: _19  and  _20
REMARK    9  A    between atoms: _19  and  _22
REMARK   10  A    between atoms: _22  and  _23
REMARK   11  A    between atoms: _25  and  _27
REMARK   12  A    between atoms: _27  and  _28
REMARK   13  A    between atoms: _27  and  _30
REMARK   14  A    between atoms: _30  and  _31
REMARK   15  A    between atoms: _31  and  _32
REMARK   16  A    between atoms: _37  and  _39
REMARK   17  A    between atoms: _39  and  _40
REMARK   18  A    between atoms: _39  and  _42
REMARK   19  A    between atoms: _42  and  _43
REMARK   20  A    between atoms: _46  and  _48
REMARK   21  A    between atoms: _48  and  _49
REMARK   22  A    between atoms: _48  and  _51
REMARK   23  A    between atoms: _51  and  _52
REMARK   24  A    between atoms: _52  and  _53
REMARK   25  A    between atoms: _56  and  _58
REMARK   26  A    between atoms: _58  and  _59
REMARK   27  A    between atoms: _61  and  _63
REMARK   28  A    between atoms: _63  and  _64
REMARK   29  A    between atoms: _63  and  _66
REMARK   30  A    between atoms: _70  and  _71
REMARK   31  A    between atoms: _76  and  _78
REMARK   32  A    between atoms: _78  and  _79
REMARK   33  A    between atoms: _78  and  _81
REMARK   34  A    between atoms: _81  and  _82
REMARK   35  A    between atoms: _82  and  _83
REMARK   36  A    between atoms: _86  and  _88
REMARK   37  A    between atoms: _88  and  _89
REMARK   38  A    between atoms: _88  and  _91
REMARK   39  A    between atoms: _91  and  _92
REMARK   40  A    between atoms: _94  and  _96
REMARK   41  A    between atoms: _96  and  _97
REMARK   42  A    between atoms: _96  and  _99
REMARK   43  A    between atoms: _99  and  _100
REMARK   44  A    between atoms: _105  and  _107
REMARK   45  A    between atoms: _107  and  _108
REMARK   46  A    between atoms: _107  and  _110
REMARK   47  A    between atoms: _110  and  _111
REMARK   48  A    between atoms: _111  and  _112
REMARK   49  A    between atoms: _112  and  _113
REMARK   50  A    between atoms: _123  and  _124
REMARK   51  A    between atoms: _129  and  _131
REMARK   52  A    between atoms: _131  and  _132
REMARK   53  A    between atoms: _131  and  _134
REMARK   54  A    between atoms: _134  and  _135
REMARK   55  A    between atoms: _140  and  _141
REMARK   56  A    between atoms: _143  and  _145
REMARK   57  A    between atoms: _145  and  _146
REMARK   58  A    between atoms: _145  and  _148
REMARK   59  A    between atoms: _148  and  _149
REMARK   60  A    between atoms: _154  and  _155
REMARK   61  A    between atoms: _157  and  _159
REMARK   62  A    between atoms: _159  and  _160
REMARK   63  A    between atoms: _159  and  _162
REMARK   64  A    between atoms: _162  and  _163
REMARK   65  A    between atoms: _168  and  _169
REMARK   66  A    between atoms: _171  and  _173
REMARK   67  A    between atoms: _173  and  _174
REMARK   68  A    between atoms: _173  and  _176
REMARK   69  A    between atoms: _179  and  _181
REMARK   70  A    between atoms: _181  and  _182
REMARK   71  A    between atoms: _181  and  _184
REMARK   72  A    between atoms: _184  and  _185
REMARK   73  A    between atoms: _191  and  _192
REMARK   74  A    between atoms: _197  and  _199
REMARK   75  A    between atoms: _199  and  _200
REMARK   76  A    between atoms: _199  and  _202
REMARK   77  A    between atoms: _202  and  _203
REMARK   78  A    between atoms: _205  and  _207
REMARK   79  A    between atoms: _207  and  _208
REMARK   80  A    between atoms: _207  and  _210
REMARK   81  A    between atoms: _210  and  _211
REMARK   82  A    between atoms: _216  and  _217
REMARK   83  A    between atoms: _219  and  _221
REMARK   84  A    between atoms: _221  and  _222
REMARK   85  A    between atoms: _221  and  _224
REMARK   86  A    between atoms: _224  and  _225
REMARK   87  A    between atoms: _230  and  _232
REMARK   88  A    between atoms: _232  and  _233
REMARK   89  A    between atoms: _232  and  _235
REMARK   90  A    between atoms: _235  and  _236
REMARK   91  A    between atoms: _241  and  _243
REMARK   92  A    between atoms: _243  and  _244
REMARK   93  A    between atoms: _243  and  _246
REMARK   94  A    between atoms: _246  and  _247
REMARK   95  A    between atoms: _247  and  _248
REMARK   96  A    between atoms: _250  and  _252
REMARK   97  A    between atoms: _252  and  _253
REMARK   98  A    between atoms: _252  and  _255
REMARK   99  A    between atoms: _255  and  _256
REMARK  100  A    between atoms: _261  and  _262
REMARK  101  A    between atoms: _264  and  _266
REMARK  102  A    between atoms: _266  and  _267
REMARK  103  A    between atoms: _266  and  _269
REMARK  104  A    between atoms: _269  and  _270
REMARK  105  A    between atoms: _273  and  _275
REMARK  106  A    between atoms: _275  and  _276
REMARK  107  A    between atoms: _275  and  _278
REMARK  108  A    between atoms: _278  and  _279
REMARK  109  A    between atoms: _279  and  _496
REMARK  110  A    between atoms: _280  and  _282
REMARK  111  A    between atoms: _282  and  _283
REMARK  112  A    between atoms: _282  and  _285
REMARK  113  A    between atoms: _285  and  _286
REMARK  114  A    between atoms: _289  and  _291
REMARK  115  A    between atoms: _291  and  _292
REMARK  116  A    between atoms: _291  and  _294
REMARK  117  A    between atoms: _294  and  _295
REMARK  118  A    between atoms: _300  and  _301
REMARK  119  A    between atoms: _303  and  _305
REMARK  120  A    between atoms: _305  and  _306
REMARK  121  A    between atoms: _305  and  _308
REMARK  122  A    between atoms: _308  and  _309
REMARK  123  A    between atoms: _314  and  _315
REMARK  124  A    between atoms: _317  and  _319
REMARK  125  A    between atoms: _319  and  _320
REMARK  126  A    between atoms: _319  and  _322
REMARK  127  A    between atoms: _322  and  _323
REMARK  128  A    between atoms: _323  and  _324
REMARK  129  A    between atoms: _327  and  _329
REMARK  130  A    between atoms: _329  and  _330
REMARK  131  A    between atoms: _329  and  _332
REMARK  132  A    between atoms: _332  and  _333
REMARK  133  A    between atoms: _338  and  _339
REMARK  134  A    between atoms: _341  and  _343
REMARK  135  A    between atoms: _343  and  _344
REMARK  136  A    between atoms: _343  and  _346
REMARK  137  A    between atoms: _346  and  _347
REMARK  138  A    between atoms: _352  and  _354
REMARK  139  A    between atoms: _354  and  _355
REMARK  140  A    between atoms: _354  and  _357
REMARK  141  A    between atoms: _357  and  _358
REMARK  142  A    between atoms: _361  and  _363
REMARK  143  A    between atoms: _363  and  _364
REMARK  144  A    between atoms: _363  and  _366
REMARK  145  A    between atoms: _366  and  _367
REMARK  146  A    between atoms: _372  and  _374
REMARK  147  A    between atoms: _374  and  _375
REMARK  148  A    between atoms: _374  and  _377
REMARK  149  A    between atoms: _377  and  _378
REMARK  150  A    between atoms: _388  and  _390
REMARK  151  A    between atoms: _390  and  _391
REMARK  152  A    between atoms: _390  and  _393
REMARK  153  A    between atoms: _393  and  _394
REMARK  154  A    between atoms: _400  and  _402
REMARK  155  A    between atoms: _402  and  _403
REMARK  156  A    between atoms: _402  and  _405
REMARK  157  A    between atoms: _405  and  _406
REMARK  158  A    between atoms: _409  and  _411
REMARK  159  A    between atoms: _411  and  _412
REMARK  160  A    between atoms: _411  and  _414
REMARK  161  A    between atoms: _414  and  _415
REMARK  162  A    between atoms: _418  and  _420
REMARK  163  A    between atoms: _420  and  _421
REMARK  164  A    between atoms: _420  and  _423
REMARK  165  A    between atoms: _423  and  _424
REMARK  166  A    between atoms: _424  and  _425
REMARK  167  A    between atoms: _425  and  _426
REMARK  168  A    between atoms: _435  and  _437
REMARK  169  A    between atoms: _437  and  _438
REMARK  170  A    between atoms: _437  and  _440
REMARK  171  A    between atoms: _440  and  _441
REMARK  172  A    between atoms: _446  and  _448
REMARK  173  A    between atoms: _448  and  _449
REMARK  174  A    between atoms: _448  and  _451
REMARK  175  A    between atoms: _451  and  _452
REMARK  176  A    between atoms: _452  and  _453
REMARK  177  A    between atoms: _453  and  _454
REMARK  178  A    between atoms: _463  and  _465
REMARK  179  A    between atoms: _465  and  _466
REMARK  180  A    between atoms: _469  and  _471
REMARK  181  A    between atoms: _471  and  _472
REMARK  182  A    between atoms: _474  and  _476
REMARK  183  A    between atoms: _476  and  _477
REMARK  184  A    between atoms: _476  and  _479
REMARK  185  A    between atoms: _479  and  _480
REMARK  186  A    between atoms: _490  and  _492
REMARK  187  A    between atoms: _492  and  _493
REMARK  188  A    between atoms: _492  and  _495
REMARK  189  A    between atoms: _495  and  _496
REMARK  190  A    between atoms: _497  and  _499
REMARK  191  A    between atoms: _499  and  _500
REMARK  192  A    between atoms: _503  and  _505
REMARK  193  A    between atoms: _505  and  _506
REMARK  194  A    between atoms: _505  and  _508
REMARK  195  A    between atoms: _508  and  _509
REMARK  196  A    between atoms: _512  and  _514
REMARK  197  A    between atoms: _514  and  _515
REMARK  198  A    between atoms: _514  and  _517
REMARK  199  A    between atoms: _517  and  _518
REMARK  200  A    between atoms: _523  and  _524
REMARK  201  A    between atoms: _526  and  _528
REMARK  202  A    between atoms: _528  and  _529
REMARK  203  A    between atoms: _528  and  _531
REMARK  204  A    between atoms: _531  and  _532
REMARK  205  A    between atoms: _534  and  _536
REMARK  206  A    between atoms: _536  and  _537
REMARK  207  A    between atoms: _536  and  _539
REMARK  208  A    between atoms: _539  and  _540
REMARK  209  A    between atoms: _546  and  _548
REMARK  210  A    between atoms: _548  and  _549
REMARK  211  A    between atoms: _548  and  _551
REMARK  212  A    between atoms: _551  and  _552
REMARK  213  A    between atoms: _555  and  _557
REMARK  214  A    between atoms: _557  and  _558
REMARK  215  A    between atoms: _557  and  _560
REMARK  216  A    between atoms: _560  and  _561
REMARK  217  A    between atoms: _563  and  _565
REMARK  218  A    between atoms: _565  and  _566
REMARK  219  A    between atoms: _565  and  _568
REMARK  220  A    between atoms: _568  and  _569
REMARK  221  A    between atoms: _574  and  _576
REMARK  222  A    between atoms: _576  and  _577
REMARK  223  A    between atoms: _576  and  _579
REMARK  224  A    between atoms: _579  and  _580
REMARK  225  A    between atoms: _585  and  _587
REMARK  226  A    between atoms: _587  and  _588
REMARK  227  A    between atoms: _587  and  _590
REMARK  228  A    between atoms: _590  and  _591
REMARK  229  A    between atoms: _594  and  _596
REMARK  230  A    between atoms: _596  and  _597
REMARK  231  A    between atoms: _600  and  _602
REMARK  232  A    between atoms: _602  and  _603
REMARK  233  A    between atoms: _602  and  _605
REMARK  234  A    between atoms: _605  and  _606
REMARK  235  A    between atoms: _611  and  _612
REMARK  236  A    between atoms: _614  and  _616
REMARK  237  A    between atoms: _616  and  _617
REMARK  238  A    between atoms: _616  and  _619
REMARK  239  A    between atoms: _619  and  _620
REMARK  240  A    between atoms: _625  and  _626
REMARK  241  A    between atoms: _628  and  _630
REMARK  242  A    between atoms: _630  and  _631
REMARK  243  A    between atoms: _630  and  _633
REMARK  244  A    between atoms: _636  and  _638
REMARK  245  A    between atoms: _638  and  _639
REMARK  246  A    between atoms: _638  and  _641
REMARK  247  A    between atoms: _641  and  _642
REMARK  248  A    between atoms: _647  and  _649
REMARK  249  A    between atoms: _649  and  _650
REMARK  250  A    between atoms: _653  and  _655
REMARK  251  A    between atoms: _655  and  _656
REMARK  252  A    between atoms: _655  and  _658
REMARK  253  A    between atoms: _658  and  _659
REMARK  254  A    between atoms: _659  and  _660
REMARK  255  A    between atoms: _660  and  _661
REMARK  256  A    between atoms: _670  and  _672
REMARK  257  A    between atoms: _672  and  _673
REMARK  258  A    between atoms: _672  and  _675
REMARK  259  A    between atoms: _675  and  _676
REMARK  260  A    between atoms: _679  and  _681
REMARK  261  A    between atoms: _681  and  _682
REMARK  262  A    between atoms: _681  and  _684
REMARK  263  A    between atoms: _684  and  _685
REMARK  264  A    between atoms: _688  and  _690
REMARK  265  A    between atoms: _690  and  _691
REMARK  266  A    between atoms: _690  and  _693
REMARK  267  A    between atoms: _693  and  _694
REMARK  268  A    between atoms: _724  and  _725
REMARK  269  A    between atoms: _725  and  _731
REMARK                            x       y       z     vdW  Elec       q    Type
REMARK                         _______ _______ _______ _____ _____    ______ ____
ROOT
ATOM      1  CA  HIS A   2      12.116  14.849   8.199  0.00  0.00    +0.155 C 
ENDROOT
BRANCH   1   2
ATOM      2  C   HIS A   2      12.602  16.052   7.458  0.00  0.00    +0.244 C 
ATOM      3  N   PRO A   3      11.841  17.138   7.347  0.00  0.00    -0.272 N 
ATOM      4  CD  PRO A   3      10.459  17.286   7.927  0.00  0.00    +0.094 C 
ATOM      5  CG  PRO A   3       9.874  18.326   6.959  0.00  0.00    +0.024 C 
ATOM      6  CB  PRO A   3      11.034  19.281   6.804  0.00  0.00    +0.031 C 
ATOM      7  CA  PRO A   3      12.200  18.305   6.559  0.00  0.00    +0.152 C 
ATOM      8  O   HIS A   2      13.727  16.035   6.981  0.00  0.00    -0.273 OA
BRANCH   7   9
ATOM      9  C   PRO A   3      13.487  18.960   7.009  0.00  0.00    +0.241 C 
ATOM     10  N   SER A   4      13.763  18.888   8.311  0.00  0.00    -0.296 N 
ATOM     11  H   SER A   4      13.114  18.386   8.949  0.00  0.00    +0.150 HD
ATOM     12  O   PRO A   3      14.286  19.412   6.168  0.00  0.00    -0.273 OA
BRANCH  10  13
ATOM     13  CA  SER A   4      14.977  19.513   8.850  0.00  0.00    +0.166 C 
BRANCH  13  14
ATOM     14  C   SER A   4      16.262  18.964   8.241  0.00  0.00    +0.229 C 
ATOM     15  O   SER A   4      17.197  19.751   8.067  0.00  0.00    -0.286 OA
ENDBRANCH  13  14
BRANCH  13  16
ATOM     16  CB  SER A   4      14.994  19.424  10.385  0.00  0.00    +0.165 C 
BRANCH  16  17
ATOM     17  OG  SER A   4      15.380  18.143  10.861  0.00  0.00    -0.380 OA
ATOM     18  H   SER A   4      14.744  17.462  10.526  0.00  0.00    +0.211 HD
ENDBRANCH  16  17
ENDBRANCH  13  16
ENDBRANCH  10  13
ENDBRANCH   7   9
ENDBRANCH   1   2
BRANCH   1  20
ATOM     19  C   VAL A   1      12.085  12.993   6.569  0.00  0.00    +0.238 C 
ATOM     20  N   HIS A   2      12.547  13.574   7.634  0.00  0.00    -0.297 N 
ATOM     21  H   HIS A   2      13.307  13.077   8.140  0.00  0.00    +0.150 HD
ATOM     22  O   VAL A   1      11.243  13.592   5.875  0.00  0.00    -0.274 OA
BRANCH  19  23
ATOM     23  CA  VAL A   1      12.541  11.609   6.113  0.00  0.00    +0.145 C 
BRANCH  23  24
ATOM     24  CB  VAL A   1      11.340  10.646   6.199  0.00  0.00    +0.025 C 
ATOM     25  CG2 VAL A   1      10.748  10.534   7.612  0.00  0.00    +0.002 C 
ATOM     26  CG1 VAL A   1      11.837   9.243   5.767  0.00  0.00    +0.002 C 
ENDBRANCH  23  24
BRANCH  23  27
ATOM     27  N   VAL A   1      13.650  11.104   6.918  0.00  0.00    -0.238 NA
ATOM     28  H   VAL A   1      13.450  10.444   7.697  0.00  0.00    +0.142 HD
ENDBRANCH  23  27
ENDBRANCH  19  23
ENDBRANCH   1  20
BRANCH   1  29
ATOM     29  CB  HIS A   2      12.618  14.846   9.658  0.00  0.00    +0.076 C 
BRANCH  29  30
ATOM     30  CG  HIS A   2      11.928  15.880  10.493  0.00  0.00    +0.082 A 
ATOM     31  CD2 HIS A   2      10.678  15.890  11.013  0.00  0.00    +0.115 A 
ATOM     32  NE2 HIS A   2      10.509  17.076  11.687  0.00  0.00    -0.221 NA
ATOM     33  CE1 HIS A   2      11.633  17.803  11.526  0.00  0.00    +0.199 A 
ATOM     34  ND1 HIS A   2      12.501  17.104  10.817  0.00  0.00    -0.227 NA
ENDBRANCH  29  30
ENDBRANCH   1  29
TORSDOF 12
REMARK  Name = ../refined-set-2016/1b3h/1b3h_pocket.pdb
REMARK  269 active torsions:
REMARK  status: ('A' for Active; 'I' for Inactive)
REMARK    1  A    between atoms: _1  and  _3
REMARK    2  A    between atoms: _3  and  _4
REMARK    3  A    between atoms: _3  and  _6
REMARK    4  A    between atoms: _6  and  _7
REMARK    5  A    between atoms: _12  and  _14
REMARK    6  A    between atoms: _14  and  _15
REMARK    7  A    between atoms: _17  and  _19
REMARK    8  A    between atoms: _19  and  _20
REMARK    9  A    between atoms: _19  and  _22
REMARK   10  A    between atoms: _22  and  _23
REMARK   11  A    between atoms: _25  and  _27
REMARK   12  A    between atoms: _27  and  _28
REMARK   13  A    between atoms: _27  and  _30
REMARK   14  A    between atoms: _30  and  _31
REMARK   15  A    between atoms: _31  and  _32
REMARK   16  A    between atoms: _37  and  _39
REMARK   17  A    between atoms: _39  and  _40
REMARK   18  A    between atoms: _39  and  _42
REMARK   19  A    between atoms: _42  and  _43
REMARK   20  A    between atoms: _46  and  _48
REMARK   21  A    between atoms: _48  and  _49
REMARK   22  A    between atoms: _48  and  _51
REMARK   23  A    between atoms: _51  and  _52
REMARK   24  A    between atoms: _52  and  _53
REMARK   25  A    between atoms: _56  and  _58
REMARK   26  A    between atoms: _58  and  _59
REMARK   27  A    between atoms: _61  and  _63
REMARK   28  A    between atoms: _63  and  _64
REMARK   29  A    between atoms: _63  and  _66
REMARK   30  A    between atoms: _70  and  _71
REMARK   31  A    between atoms: _76  and  _78
REMARK   32  A    between atoms: _78  and  _79
REMARK   33  A    between atoms: _78  and  _81
REMARK   34  A    between atoms: _81  and  _82
REMARK   35  A    between atoms: _82  and  _83
REMARK   36  A    between atoms: _86  and  _88
REMARK   37  A    between atoms: _88  and  _89
REMARK   38  A    between atoms: _88  and  _91
REMARK   39  A    between atoms: _91  and  _92
REMARK   40  A    between atoms: _94  and  _96
REMARK   41  A    between atoms: _96  and  _97
REMARK   42  A    between atoms: _96  and  _99
REMARK   43  A    between atoms: _99  and  _100
REMARK   44  A    between atoms: _105  and  _107
REMARK   45  A    between atoms: _107  and  _108
REMARK   46  A    between atoms: _107  and  _110
REMARK   47  A    between atoms: _110  and  _111
REMARK   48  A    between atoms: _111  and  _112
REMARK   49  A    between atoms: _112  and  _113
REMARK   50  A    between atoms: _123  and  _124
REMARK   51  A    between atoms: _129  and  _131
REMARK   52  A    between atoms: _131  and  _132
REMARK   53  A    between atoms: _131  and  _134
REMARK   54  A    between atoms: _134  and  _135
REMARK   55  A    between atoms: _140  and  _141
REMARK   56  A    between atoms: _143  and  _145
REMARK   57  A    between atoms: _145  and  _146
REMARK   58  A    between atoms: _145  and  _148
REMARK   59  A    between atoms: _148  and  _149
REMARK   60  A    between atoms: _154  and  _155
REMARK   61  A    between atoms: _157  and  _159
REMARK   62  A    between atoms: _159  and  _160
REMARK   63  A    between atoms: _159  and  _162
REMARK   64  A    between atoms: _162  and  _163
REMARK   65  A    between atoms: _168  and  _169
REMARK   66  A    between atoms: _171  and  _173
REMARK   67  A    between atoms: _173  and  _174
REMARK   68  A    between atoms: _173  and  _176
REMARK   69  A    between atoms: _179  and  _181
REMARK   70  A    between atoms: _181  and  _182
REMARK   71  A    between atoms: _181  and  _184
REMARK   72  A    between atoms: _184  and  _185
REMARK   73  A    between atoms: _191  and  _192
REMARK   74  A    between atoms: _197  and  _199
REMARK   75  A    between atoms: _199  and  _200
REMARK   76  A    between atoms: _199  and  _202
REMARK   77  A    between atoms: _202  and  _203
REMARK   78  A    between atoms: _205  and  _207
REMARK   79  A    between atoms: _207  and  _208
REMARK   80  A    between atoms: _207  and  _210
REMARK   81  A    between atoms: _210  and  _211
REMARK   82  A    between atoms: _216  and  _217
REMARK   83  A    between atoms: _219  and  _221
REMARK   84  A    between atoms: _221  and  _222
REMARK   85  A    between atoms: _221  and  _224
REMARK   86  A    between atoms: _224  and  _225
REMARK   87  A    between atoms: _230  and  _232
REMARK   88  A    between atoms: _232  and  _233
REMARK   89  A    between atoms: _232  and  _235
REMARK   90  A    between atoms: _235  and  _236
REMARK   91  A    between atoms: _241  and  _243
REMARK   92  A    between atoms: _243  and  _244
REMARK   93  A    between atoms: _243  and  _246
REMARK   94  A    between atoms: _246  and  _247
REMARK   95  A    between atoms: _247  and  _248
REMARK   96  A    between atoms: _250  and  _252
REMARK   97  A    between atoms: _252  and  _253
REMARK   98  A    between atoms: _252  and  _255
REMARK   99  A    between atoms: _255  and  _256
REMARK  100  A    between atoms: _261  and  _262
REMARK  101  A    between atoms: _264  and  _266
REMARK  102  A    between atoms: _266  and  _267
REMARK  103  A    between atoms: _266  and  _269
REMARK  104  A    between atoms: _269  and  _270
REMARK  105  A    between atoms: _273  and  _275
REMARK  106  A    between atoms: _275  and  _276
REMARK  107  A    between atoms: _275  and  _278
REMARK  108  A    between atoms: _278  and  _279
REMARK  109  A    between atoms: _279  and  _496
REMARK  110  A    between atoms: _280  and  _282
REMARK  111  A    between atoms: _282  and  _283
REMARK  112  A    between atoms: _282  and  _285
REMARK  113  A    between atoms: _285  and  _286
REMARK  114  A    between atoms: _289  and  _291
REMARK  115  A    between atoms: _291  and  _292
REMARK  116  A    between atoms: _291  and  _294
REMARK  117  A    between atoms: _294  and  _295
REMARK  118  A    between atoms: _300  and  _301
REMARK  119  A    between atoms: _303  and  _305
REMARK  120  A    between atoms: _305  and  _306
REMARK  121  A    between atoms: _305  and  _308
REMARK  122  A    between atoms: _308  and  _309
REMARK  123  A    between atoms: _314  and  _315
REMARK  124  A    between atoms: _317  and  _319
REMARK  125  A    between atoms: _319  and  _320
REMARK  126  A    between atoms: _319  and  _322
REMARK  127  A    between atoms: _322  and  _323
REMARK  128  A    between atoms: _323  and  _324
REMARK  129  A    between atoms: _327  and  _329
REMARK  130  A    between atoms: _329  and  _330
REMARK  131  A    between atoms: _329  and  _332
REMARK  132  A    between atoms: _332  and  _333
REMARK  133  A    between atoms: _338  and  _339
REMARK  134  A    between atoms: _341  and  _343
REMARK  135  A    between atoms: _343  and  _344
REMARK  136  A    between atoms: _343  and  _346
REMARK  137  A    between atoms: _346  and  _347
REMARK  138  A    between atoms: _352  and  _354
REMARK  139  A    between atoms: _354  and  _355
REMARK  140  A    between atoms: _354  and  _357
REMARK  141  A    between atoms: _357  and  _358
REMARK  142  A    between atoms: _361  and  _363
REMARK  143  A    between atoms: _363  and  _364
REMARK  144  A    between atoms: _363  and  _366
REMARK  145  A    between atoms: _366  and  _367
REMARK  146  A    between atoms: _372  and  _374
REMARK  147  A    between atoms: _374  and  _375
REMARK  148  A    between atoms: _374  and  _377
REMARK  149  A    between atoms: _377  and  _378
REMARK  150  A    between atoms: _388  and  _390
REMARK  151  A    between atoms: _390  and  _391
REMARK  152  A    between atoms: _390  and  _393
REMARK  153  A    between atoms: _393  and  _394
REMARK  154  A    between atoms: _400  and  _402
REMARK  155  A    between atoms: _402  and  _403
REMARK  156  A    between atoms: _402  and  _405
REMARK  157  A    between atoms: _405  and  _406
REMARK  158  A    between atoms: _409  and  _411
REMARK  159  A    between atoms: _411  and  _412
REMARK  160  A    between atoms: _411  and  _414
REMARK  161  A    between atoms: _414  and  _415
REMARK  162  A    between atoms: _418  and  _420
REMARK  163  A    between atoms: _420  and  _421
REMARK  164  A    between atoms: _420  and  _423
REMARK  165  A    between atoms: _423  and  _424
REMARK  166  A    between atoms: _424  and  _425
REMARK  167  A    between atoms: _425  and  _426
REMARK  168  A    between atoms: _435  and  _437
REMARK  169  A    between atoms: _437  and  _438
REMARK  170  A    between atoms: _437  and  _440
REMARK  171  A    between atoms: _440  and  _441
REMARK  172  A    between atoms: _446  and  _448
REMARK  173  A    between atoms: _448  and  _449
REMARK  174  A    between atoms: _448  and  _451
REMARK  175  A    between atoms: _451  and  _452
REMARK  176  A    between atoms: _452  and  _453
REMARK  177  A    between atoms: _453  and  _454
REMARK  178  A    between atoms: _463  and  _465
REMARK  179  A    between atoms: _465  and  _466
REMARK  180  A    between atoms: _469  and  _471
REMARK  181  A    between atoms: _471  and  _472
REMARK  182  A    between atoms: _474  and  _476
REMARK  183  A    between atoms: _476  and  _477
REMARK  184  A    between atoms: _476  and  _479
REMARK  185  A    between atoms: _479  and  _480
REMARK  186  A    between atoms: _490  and  _492
REMARK  187  A    between atoms: _492  and  _493
REMARK  188  A    between atoms: _492  and  _495
REMARK  189  A    between atoms: _495  and  _496
REMARK  190  A    between atoms: _497  and  _499
REMARK  191  A    between atoms: _499  and  _500
REMARK  192  A    between atoms: _503  and  _505
REMARK  193  A    between atoms: _505  and  _506
REMARK  194  A    between atoms: _505  and  _508
REMARK  195  A    between atoms: _508  and  _509
REMARK  196  A    between atoms: _512  and  _514
REMARK  197  A    between atoms: _514  and  _515
REMARK  198  A    between atoms: _514  and  _517
REMARK  199  A    between atoms: _517  and  _518
REMARK  200  A    between atoms: _523  and  _524
REMARK  201  A    between atoms: _526  and  _528
REMARK  202  A    between atoms: _528  and  _529
REMARK  203  A    between atoms: _528  and  _531
REMARK  204  A    between atoms: _531  and  _532
REMARK  205  A    between atoms: _534  and  _536
REMARK  206  A    between atoms: _536  and  _537
REMARK  207  A    between atoms: _536  and  _539
REMARK  208  A    between atoms: _539  and  _540
REMARK  209  A    between atoms: _546  and  _548
REMARK  210  A    between atoms: _548  and  _549
REMARK  211  A    between atoms: _548  and  _551
REMARK  212  A    between atoms: _551  and  _552
REMARK  213  A    between atoms: _555  and  _557
REMARK  214  A    between atoms: _557  and  _558
REMARK  215  A    between atoms: _557  and  _560
REMARK  216  A    between atoms: _560  and  _561
REMARK  217  A    between atoms: _563  and  _565
REMARK  218  A    between atoms: _565  and  _566
REMARK  219  A    between atoms: _565  and  _568
REMARK  220  A    between atoms: _568  and  _569
REMARK  221  A    between atoms: _574  and  _576
REMARK  222  A    between atoms: _576  and  _577
REMARK  223  A    between atoms: _576  and  _579
REMARK  224  A    between atoms: _579  and  _580
REMARK  225  A    between atoms: _585  and  _587
REMARK  226  A    between atoms: _587  and  _588
REMARK  227  A    between atoms: _587  and  _590
REMARK  228  A    between atoms: _590  and  _591
REMARK  229  A    between atoms: _594  and  _596
REMARK  230  A    between atoms: _596  and  _597
REMARK  231  A    between atoms: _600  and  _602
REMARK  232  A    between atoms: _602  and  _603
REMARK  233  A    between atoms: _602  and  _605
REMARK  234  A    between atoms: _605  and  _606
REMARK  235  A    between atoms: _611  and  _612
REMARK  236  A    between atoms: _614  and  _616
REMARK  237  A    between atoms: _616  and  _617
REMARK  238  A    between atoms: _616  and  _619
REMARK  239  A    between atoms: _619  and  _620
REMARK  240  A    between atoms: _625  and  _626
REMARK  241  A    between atoms: _628  and  _630
REMARK  242  A    between atoms: _630  and  _631
REMARK  243  A    between atoms: _630  and  _633
REMARK  244  A    between atoms: _636  and  _638
REMARK  245  A    between atoms: _638  and  _639
REMARK  246  A    between atoms: _638  and  _641
REMARK  247  A    between atoms: _641  and  _642
REMARK  248  A    between atoms: _647  and  _649
REMARK  249  A    between atoms: _649  and  _650
REMARK  250  A    between atoms: _653  and  _655
REMARK  251  A    between atoms: _655  and  _656
REMARK  252  A    between atoms: _655  and  _658
REMARK  253  A    between atoms: _658  and  _659
REMARK  254  A    between atoms: _659  and  _660
REMARK  255  A    between atoms: _660  and  _661
REMARK  256  A    between atoms: _670  and  _672
REMARK  257  A    between atoms: _672  and  _673
REMARK  258  A    between atoms: _672  and  _675
REMARK  259  A    between atoms: _675  and  _676
REMARK  260  A    between atoms: _679  and  _681
REMARK  261  A    between atoms: _681  and  _682
REMARK  262  A    between atoms: _681  and  _684
REMARK  263  A    between atoms: _684  and  _685
REMARK  264  A    between atoms: _688  and  _690
REMARK  265  A    between atoms: _690  and  _691
REMARK  266  A    between atoms: _690  and  _693
REMARK  267  A    between atoms: _693  and  _694
REMARK  268  A    between atoms: _724  and  _725
REMARK  269  A    between atoms: _725  and  _731
REMARK                            x       y       z     vdW  Elec       q    Type
REMARK                         _______ _______ _______ _____ _____    ______ ____
ROOT
ATOM      1  CA  ASN A   2      -6.803  16.564   9.409  0.00  0.00    +0.158 C 
ENDROOT
BRANCH   1   3
ATOM      2  C   TYR A   1      -7.219  18.222   7.715  0.00  0.00    +0.239 C 
ATOM      3  N   ASN A   2      -6.349  17.614   8.507  0.00  0.00    -0.297 N 
ATOM      4  H   ASN A   2      -5.345  17.885   8.485  0.00  0.00    +0.150 HD
ATOM      5  O   TYR A   1      -8.430  17.946   7.797  0.00  0.00    -0.274 OA
BRANCH   2   6
ATOM      6  CA  TYR A   1      -6.751  19.291   6.708  0.00  0.00    +0.149 C 
BRANCH   6   7
ATOM      7  N   TYR A   1      -7.870  19.485   5.785  0.00  0.00    -0.238 NA
ATOM      8  H   TYR A   1      -8.453  20.344   5.838  0.00  0.00    +0.142 HD
ENDBRANCH   6   7
BRANCH   6   9
ATOM      9  CB  TYR A   1      -6.406  20.582   7.403  0.00  0.00    +0.053 C 
BRANCH   9  10
ATOM     10  CG  TYR A   1      -5.255  20.507   8.367  0.00  0.00    -0.020 A 
ATOM     11  CD2 TYR A   1      -5.462  20.750   9.727  0.00  0.00    -0.001 A 
ATOM     12  CE2 TYR A   1      -4.405  20.739  10.628  0.00  0.00    +0.036 A 
ATOM     13  CZ  TYR A   1      -3.133  20.452  10.158  0.00  0.00    +0.134 A 
ATOM     14  CE1 TYR A   1      -2.914  20.182   8.812  0.00  0.00    +0.036 A 
ATOM     15  CD1 TYR A   1      -3.974  20.219   7.916  0.00  0.00    -0.001 A 
BRANCH  13  16
ATOM     16  OH  TYR A   1      -2.087  20.360  11.050  0.00  0.00    -0.506 OA
ATOM     17  HH  TYR A   1      -1.984  21.222  11.526  0.00  0.00    +0.292 HD
ENDBRANCH  13  16
ENDBRANCH   9  10
ENDBRANCH   6   9
ENDBRANCH   2   6
ENDBRANCH   1   3
BRANCH   1  18
ATOM     18  C   ASN A   2      -6.972  17.042  10.831  0.00  0.00    +0.241 C 
ATOM     19  O   ASN A   2      -6.269  16.679  11.750  0.00  0.00    -0.273 OA
ATOM     20  N   ASN A   3      -7.894  17.932  11.057  0.00  0.00    -0.297 N 
ATOM     21  H   ASN A   3      -8.305  18.337  10.192  0.00  0.00    +0.150 HD
BRANCH  20  22
ATOM     22  CA  ASN A   3      -8.460  18.470  12.277  0.00  0.00    +0.158 C 
BRANCH  22  23
ATOM     23  C   ASN A   3      -9.971  18.517  11.911  0.00  0.00    +0.241 C 
ATOM     24  N   MET A   4     -10.824  17.765  12.576  0.00  0.00    -0.298 N 
ATOM     25  H   MET A   4     -10.492  17.148  13.344  0.00  0.00    +0.150 HD
ATOM     26  O   ASN A   3     -10.246  19.168  10.884  0.00  0.00    -0.273 OA
BRANCH  24  27
ATOM     27  CA  MET A   4     -12.254  17.807  12.220  0.00  0.00    +0.138 C 
BRANCH  27  28
ATOM     28  C   MET A   4     -13.072  18.613  13.241  0.00  0.00    +0.227 C 
ATOM     29  O   MET A   4     -12.824  18.563  14.448  0.00  0.00    -0.286 OA
ENDBRANCH  27  28
BRANCH  27  30
ATOM     30  CB  MET A   4     -12.789  16.382  12.141  0.00  0.00    +0.039 C 
BRANCH  30  31
ATOM     31  CG  MET A   4     -12.324  15.535  10.984  0.00  0.00    +0.060 C 
BRANCH  31  32
ATOM     32  SD  MET A   4     -13.106  15.915   9.421  0.00  0.00    -0.139 S 
ATOM     33  CE  MET A   4     -12.141  17.283   8.805  0.00  0.00    +0.069 C 
ENDBRANCH  31  32
ENDBRANCH  30  31
ENDBRANCH  27  30
ENDBRANCH  24  27
ENDBRANCH  22  23
BRANCH  22  34
ATOM     34  CB  ASN A   3      -8.024  19.872  12.614  0.00  0.00    +0.114 C 
BRANCH  34  35
ATOM     35  CG  ASN A   3      -6.801  20.092  13.463  0.00  0.00    +0.222 C 
ATOM     36  OD1 ASN A   3      -6.271  19.142  13.992  0.00  0.00    -0.275 OA
ATOM     37  ND2 ASN A   3      -6.345  21.363  13.582  0.00  0.00    -0.329 N 
ATOM     38 HD21 ASN A   3      -5.498  21.560  14.152  0.00  0.00    +0.145 HD
ATOM     39 HD22 ASN A   3      -6.843  22.141  13.104  0.00  0.00    +0.145 HD
ENDBRANCH  34  35
ENDBRANCH  22  34
ENDBRANCH  20  22
ENDBRANCH   1  18
BRANCH   1  40
ATOM     40  CB  ASN A   2      -5.870  15.349   9.301  0.00  0.00    +0.114 C 
BRANCH  40  41
ATOM     41  CG  ASN A   2      -4.398  15.626   9.497  0.00  0.00    +0.222 C 
ATOM     42  OD1 ASN A   2      -3.888  16.737   9.636  0.00  0.00    -0.275 OA
ATOM     43  ND2 ASN A   2      -3.623  14.538   9.566  0.00  0.00    -0.329 N 
ATOM     44 HD21 ASN A   2      -2.602  14.637   9.735  0.00  0.00    +0.145 HD
ATOM     45 HD22 ASN A   2      -4.042  13.593   9.450  0.00  0.00    +0.145 HD
ENDBRANCH  40  41
ENDBRANCH   1  40
TORSDOF 18
REMARK  Name = ../refined-set-2016/1b3h/1b3h_pocket.pdb
REMARK  269 active torsions:
REMARK  status: ('A' for Active; 'I' for Inactive)
REMARK    1  A    between atoms: _1  and  _3
REMARK    2  A    between atoms: _3  and  _4
REMARK    3  A    between atoms: _3  and  _6
REMARK    4  A    between atoms: _6  and  _7
REMARK    5  A    between atoms: _12  and  _14
REMARK    6  A    between atoms: _14  and  _15
REMARK    7  A    between atoms: _17  and  _19
REMARK    8  A    between atoms: _19  and  _20
REMARK    9  A    between atoms: _19  and  _22
REMARK   10  A    between atoms: _22  and  _23
REMARK   11  A    between atoms: _25  and  _27
REMARK   12  A    between atoms: _27  and  _28
REMARK   13  A    between atoms: _27  and  _30
REMARK   14  A    between atoms: _30  and  _31
REMARK   15  A    between atoms: _31  and  _32
REMARK   16  A    between atoms: _37  and  _39
REMARK   17  A    between atoms: _39  and  _40
REMARK   18  A    between atoms: _39  and  _42
REMARK   19  A    between atoms: _42  and  _43
REMARK   20  A    between atoms: _46  and  _48
REMARK   21  A    between atoms: _48  and  _49
REMARK   22  A    between atoms: _48  and  _51
REMARK   23  A    between atoms: _51  and  _52
REMARK   24  A    between atoms: _52  and  _53
REMARK   25  A    between atoms: _56  and  _58
REMARK   26  A    between atoms: _58  and  _59
REMARK   27  A    between atoms: _61  and  _63
REMARK   28  A    between atoms: _63  and  _64
REMARK   29  A    between atoms: _63  and  _66
REMARK   30  A    between atoms: _70  and  _71
REMARK   31  A    between atoms: _76  and  _78
REMARK   32  A    between atoms: _78  and  _79
REMARK   33  A    between atoms: _78  and  _81
REMARK   34  A    between atoms: _81  and  _82
REMARK   35  A    between atoms: _82  and  _83
REMARK   36  A    between atoms: _86  and  _88
REMARK   37  A    between atoms: _88  and  _89
REMARK   38  A    between atoms: _88  and  _91
REMARK   39  A    between atoms: _91  and  _92
REMARK   40  A    between atoms: _94  and  _96
REMARK   41  A    between atoms: _96  and  _97
REMARK   42  A    between atoms: _96  and  _99
REMARK   43  A    between atoms: _99  and  _100
REMARK   44  A    between atoms: _105  and  _107
REMARK   45  A    between atoms: _107  and  _108
REMARK   46  A    between atoms: _107  and  _110
REMARK   47  A    between atoms: _110  and  _111
REMARK   48  A    between atoms: _111  and  _112
REMARK   49  A    between atoms: _112  and  _113
REMARK   50  A    between atoms: _123  and  _124
REMARK   51  A    between atoms: _129  and  _131
REMARK   52  A    between atoms: _131  and  _132
REMARK   53  A    between atoms: _131  and  _134
REMARK   54  A    between atoms: _134  and  _135
REMARK   55  A    between atoms: _140  and  _141
REMARK   56  A    between atoms: _143  and  _145
REMARK   57  A    between atoms: _145  and  _146
REMARK   58  A    between atoms: _145  and  _148
REMARK   59  A    between atoms: _148  and  _149
REMARK   60  A    between atoms: _154  and  _155
REMARK   61  A    between atoms: _157  and  _159
REMARK   62  A    between atoms: _159  and  _160
REMARK   63  A    between atoms: _159  and  _162
REMARK   64  A    between atoms: _162  and  _163
REMARK   65  A    between atoms: _168  and  _169
REMARK   66  A    between atoms: _171  and  _173
REMARK   67  A    between atoms: _173  and  _174
REMARK   68  A    between atoms: _173  and  _176
REMARK   69  A    between atoms: _179  and  _181
REMARK   70  A    between atoms: _181  and  _182
REMARK   71  A    between atoms: _181  and  _184
REMARK   72  A    between atoms: _184  and  _185
REMARK   73  A    between atoms: _191  and  _192
REMARK   74  A    between atoms: _197  and  _199
REMARK   75  A    between atoms: _199  and  _200
REMARK   76  A    between atoms: _199  and  _202
REMARK   77  A    between atoms: _202  and  _203
REMARK   78  A    between atoms: _205  and  _207
REMARK   79  A    between atoms: _207  and  _208
REMARK   80  A    between atoms: _207  and  _210
REMARK   81  A    between atoms: _210  and  _211
REMARK   82  A    between atoms: _216  and  _217
REMARK   83  A    between atoms: _219  and  _221
REMARK   84  A    between atoms: _221  and  _222
REMARK   85  A    between atoms: _221  and  _224
REMARK   86  A    between atoms: _224  and  _225
REMARK   87  A    between atoms: _230  and  _232
REMARK   88  A    between atoms: _232  and  _233
REMARK   89  A    between atoms: _232  and  _235
REMARK   90  A    between atoms: _235  and  _236
REMARK   91  A    between atoms: _241  and  _243
REMARK   92  A    between atoms: _243  and  _244
REMARK   93  A    between atoms: _243  and  _246
REMARK   94  A    between atoms: _246  and  _247
REMARK   95  A    between atoms: _247  and  _248
REMARK   96  A    between atoms: _250  and  _252
REMARK   97  A    between atoms: _252  and  _253
REMARK   98  A    between atoms: _252  and  _255
REMARK   99  A    between atoms: _255  and  _256
REMARK  100  A    between atoms: _261  and  _262
REMARK  101  A    between atoms: _264  and  _266
REMARK  102  A    between atoms: _266  and  _267
REMARK  103  A    between atoms: _266  and  _269
REMARK  104  A    between atoms: _269  and  _270
REMARK  105  A    between atoms: _273  and  _275
REMARK  106  A    between atoms: _275  and  _276
REMARK  107  A    between atoms: _275  and  _278
REMARK  108  A    between atoms: _278  and  _279
REMARK  109  A    between atoms: _279  and  _496
REMARK  110  A    between atoms: _280  and  _282
REMARK  111  A    between atoms: _282  and  _283
REMARK  112  A    between atoms: _282  and  _285
REMARK  113  A    between atoms: _285  and  _286
REMARK  114  A    between atoms: _289  and  _291
REMARK  115  A    between atoms: _291  and  _292
REMARK  116  A    between atoms: _291  and  _294
REMARK  117  A    between atoms: _294  and  _295
REMARK  118  A    between atoms: _300  and  _301
REMARK  119  A    between atoms: _303  and  _305
REMARK  120  A    between atoms: _305  and  _306
REMARK  121  A    between atoms: _305  and  _308
REMARK  122  A    between atoms: _308  and  _309
REMARK  123  A    between atoms: _314  and  _315
REMARK  124  A    between atoms: _317  and  _319
REMARK  125  A    between atoms: _319  and  _320
REMARK  126  A    between atoms: _319  and  _322
REMARK  127  A    between atoms: _322  and  _323
REMARK  128  A    between atoms: _323  and  _324
REMARK  129  A    between atoms: _327  and  _329
REMARK  130  A    between atoms: _329  and  _330
REMARK  131  A    between atoms: _329  and  _332
REMARK  132  A    between atoms: _332  and  _333
REMARK  133  A    between atoms: _338  and  _339
REMARK  134  A    between atoms: _341  and  _343
REMARK  135  A    between atoms: _343  and  _344
REMARK  136  A    between atoms: _343  and  _346
REMARK  137  A    between atoms: _346  and  _347
REMARK  138  A    between atoms: _352  and  _354
REMARK  139  A    between atoms: _354  and  _355
REMARK  140  A    between atoms: _354  and  _357
REMARK  141  A    between atoms: _357  and  _358
REMARK  142  A    between atoms: _361  and  _363
REMARK  143  A    between atoms: _363  and  _364
REMARK  144  A    between atoms: _363  and  _366
REMARK  145  A    between atoms: _366  and  _367
REMARK  146  A    between atoms: _372  and  _374
REMARK  147  A    between atoms: _374  and  _375
REMARK  148  A    between atoms: _374  and  _377
REMARK  149  A    between atoms: _377  and  _378
REMARK  150  A    between atoms: _388  and  _390
REMARK  151  A    between atoms: _390  and  _391
REMARK  152  A    between atoms: _390  and  _393
REMARK  153  A    between atoms: _393  and  _394
REMARK  154  A    between atoms: _400  and  _402
REMARK  155  A    between atoms: _402  and  _403
REMARK  156  A    between atoms: _402  and  _405
REMARK  157  A    between atoms: _405  and  _406
REMARK  158  A    between atoms: _409  and  _411
REMARK  159  A    between atoms: _411  and  _412
REMARK  160  A    between atoms: _411  and  _414
REMARK  161  A    between atoms: _414  and  _415
REMARK  162  A    between atoms: _418  and  _420
REMARK  163  A    between atoms: _420  and  _421
REMARK  164  A    between atoms: _420  and  _423
REMARK  165  A    between atoms: _423  and  _424
REMARK  166  A    between atoms: _424  and  _425
REMARK  167  A    between atoms: _425  and  _426
REMARK  168  A    between atoms: _435  and  _437
REMARK  169  A    between atoms: _437  and  _438
REMARK  170  A    between atoms: _437  and  _440
REMARK  171  A    between atoms: _440  and  _441
REMARK  172  A    between atoms: _446  and  _448
REMARK  173  A    between atoms: _448  and  _449
REMARK  174  A    between atoms: _448  and  _451
REMARK  175  A    between atoms: _451  and  _452
REMARK  176  A    between atoms: _452  and  _453
REMARK  177  A    between atoms: _453  and  _454
REMARK  178  A    between atoms: _463  and  _465
REMARK  179  A    between atoms: _465  and  _466
REMARK  180  A    between atoms: _469  and  _471
REMARK  181  A    between atoms: _471  and  _472
REMARK  182  A    between atoms: _474  and  _476
REMARK  183  A    between atoms: _476  and  _477
REMARK  184  A    between atoms: _476  and  _479
REMARK  185  A    between atoms: _479  and  _480
REMARK  186  A    between atoms: _490  and  _492
REMARK  187  A    between atoms: _492  and  _493
REMARK  188  A    between atoms: _492  and  _495
REMARK  189  A    between atoms: _495  and  _496
REMARK  190  A    between atoms: _497  and  _499
REMARK  191  A    between atoms: _499  and  _500
REMARK  192  A    between atoms: _503  and  _505
REMARK  193  A    between atoms: _505  and  _506
REMARK  194  A    between atoms: _505  and  _508
REMARK  195  A    between atoms: _508  and  _509
REMARK  196  A    between atoms: _512  and  _514
REMARK  197  A    between atoms: _514  and  _515
REMARK  198  A    between atoms: _514  and  _517
REMARK  199  A    between atoms: _517  and  _518
REMARK  200  A    between atoms: _523  and  _524
REMARK  201  A    between atoms: _526  and  _528
REMARK  202  A    between atoms: _528  and  _529
REMARK  203  A    between atoms: _528  and  _531
REMARK  204  A    between atoms: _531  and  _532
REMARK  205  A    between atoms: _534  and  _536
REMARK  206  A    between atoms: _536  and  _537
REMARK  207  A    between atoms: _536  and  _539
REMARK  208  A    between atoms: _539  and  _540
REMARK  209  A    between atoms: _546  and  _548
REMARK  210  A    between atoms: _548  and  _549
REMARK  211  A    between atoms: _548  and  _551
REMARK  212  A    between atoms: _551  and  _552
REMARK  213  A    between atoms: _555  and  _557
REMARK  214  A    between atoms: _557  and  _558
REMARK  215  A    between atoms: _557  and  _560
REMARK  216  A    between atoms: _560  and  _561
REMARK  217  A    between atoms: _563  and  _565
REMARK  218  A    between atoms: _565  and  _566
REMARK  219  A    between atoms: _565  and  _568
REMARK  220  A    between atoms: _568  and  _569
REMARK  221  A    between atoms: _574  and  _576
REMARK  222  A    between atoms: _576  and  _577
REMARK  223  A    between atoms: _576  and  _579
REMARK  224  A    between atoms: _579  and  _580
REMARK  225  A    between atoms: _585  and  _587
REMARK  226  A    between atoms: _587  and  _588
REMARK  227  A    between atoms: _587  and  _590
REMARK  228  A    between atoms: _590  and  _591
REMARK  229  A    between atoms: _594  and  _596
REMARK  230  A    between atoms: _596  and  _597
REMARK  231  A    between atoms: _600  and  _602
REMARK  232  A    between atoms: _602  and  _603
REMARK  233  A    between atoms: _602  and  _605
REMARK  234  A    between atoms: _605  and  _606
REMARK  235  A    between atoms: _611  and  _612
REMARK  236  A    between atoms: _614  and  _616
REMARK  237  A    between atoms: _616  and  _617
REMARK  238  A    between atoms: _616  and  _619
REMARK  239  A    between atoms: _619  and  _620
REMARK  240  A    between atoms: _625  and  _626
REMARK  241  A    between atoms: _628  and  _630
REMARK  242  A    between atoms: _630  and  _631
REMARK  243  A    between atoms: _630  and  _633
REMARK  244  A    between atoms: _636  and  _638
REMARK  245  A    between atoms: _638  and  _639
REMARK  246  A    between atoms: _638  and  _641
REMARK  247  A    between atoms: _641  and  _642
REMARK  248  A    between atoms: _647  and  _649
REMARK  249  A    between atoms: _649  and  _650
REMARK  250  A    between atoms: _653  and  _655
REMARK  251  A    between atoms: _655  and  _656
REMARK  252  A    between atoms: _655  and  _658
REMARK  253  A    between atoms: _658  and  _659
REMARK  254  A    between atoms: _659  and  _660
REMARK  255  A    between atoms: _660  and  _661
REMARK  256  A    between atoms: _670  and  _672
REMARK  257  A    between atoms: _672  and  _673
REMARK  258  A    between atoms: _672  and  _675
REMARK  259  A    between atoms: _675  and  _676
REMARK  260  A    between atoms: _679  and  _681
REMARK  261  A    between atoms: _681  and  _682
REMARK  262  A    between atoms: _681  and  _684
REMARK  263  A    between atoms: _684  and  _685
REMARK  264  A    between atoms: _688  and  _690
REMARK  265  A    between atoms: _690  and  _691
REMARK  266  A    between atoms: _690  and  _693
REMARK  267  A    between atoms: _693  and  _694
REMARK  268  A    between atoms: _724  and  _725
REMARK  269  A    between atoms: _725  and  _731
REMARK                            x       y       z     vdW  Elec       q    Type
REMARK                         _______ _______ _______ _____ _____    ______ ____
ROOT
ATOM      1  CA  CYS A   5       3.272  14.210  16.025  0.00  0.00    +0.160 C 
ENDROOT
BRANCH   1   2
ATOM      2  C   CYS A   5       4.692  13.693  15.789  0.00  0.00    +0.242 C 
ATOM      3  N   ALA A   6       4.876  12.380  15.882  0.00  0.00    -0.297 N 
ATOM      4  H   ALA A   6       4.074  11.762  16.118  0.00  0.00    +0.150 HD
ATOM      5  O   CYS A   5       5.658  14.491  15.661  0.00  0.00    -0.273 OA
BRANCH   3   6
ATOM      6  CA  ALA A   6       6.182  11.806  15.658  0.00  0.00    +0.149 C 
ATOM      7  CB  ALA A   6       6.131  10.287  15.694  0.00  0.00    +0.031 C 
BRANCH   6   8
ATOM      8  C   ALA A   6       6.772  12.224  14.285  0.00  0.00    +0.241 C 
ATOM      9  N   ASP A   7       8.100  12.352  14.317  0.00  0.00    -0.297 N 
ATOM     10  H   ASP A   7       8.574  12.278  15.240  0.00  0.00    +0.150 HD
ATOM     11  O   ALA A   6       6.070  12.370  13.279  0.00  0.00    -0.273 OA
BRANCH   9  12
ATOM     12  CA  ASP A   7       8.926  12.588  13.147  0.00  0.00    +0.160 C 
BRANCH  12  13
ATOM     13  C   ASP A   7       9.501  11.268  12.633  0.00  0.00    +0.241 C 
ATOM     14  N   TYR A   8       9.627  10.288  13.491  0.00  0.00    -0.298 N 
ATOM     15  H   TYR A   8       9.421  10.485  14.491  0.00  0.00    +0.150 HD
ATOM     16  O   ASP A   7       9.762  11.127  11.418  0.00  0.00    -0.273 OA
BRANCH  14  17
ATOM     17  CA  TYR A   8      10.038   8.940  13.130  0.00  0.00    +0.141 C 
BRANCH  17  18
ATOM     18  C   TYR A   8       9.367   7.973  14.108  0.00  0.00    +0.227 C 
ATOM     19  O   TYR A   8       9.099   8.374  15.245  0.00  0.00    -0.286 OA
ENDBRANCH  17  18
BRANCH  17  20
ATOM     20  CB  TYR A   8      11.558   8.788  13.082  0.00  0.00    +0.054 C 
BRANCH  20  21
ATOM     21  CG  TYR A   8      12.299   9.185  14.338  0.00  0.00    -0.020 A 
ATOM     22  CD2 TYR A   8      12.705   8.229  15.250  0.00  0.00    -0.001 A 
ATOM     23  CE2 TYR A   8      13.356   8.577  16.435  0.00  0.00    +0.036 A 
ATOM     24  CZ  TYR A   8      13.665   9.909  16.649  0.00  0.00    +0.134 A 
ATOM     25  CE1 TYR A   8      13.281  10.889  15.751  0.00  0.00    +0.036 A 
ATOM     26  CD1 TYR A   8      12.590  10.522  14.612  0.00  0.00    -0.001 A 
BRANCH  24  27
ATOM     27  OH  TYR A   8      14.373  10.283  17.777  0.00  0.00    -0.506 OA
ATOM     28  HH  TYR A   8      14.575   9.480  18.320  0.00  0.00    +0.292 HD
ENDBRANCH  24  27
ENDBRANCH  20  21
ENDBRANCH  17  20
ENDBRANCH  14  17
ENDBRANCH  12  13
BRANCH  12  29
ATOM     29  CB  ASP A   7      10.110  13.530  13.436  0.00  0.00    +0.143 C 
BRANCH  29  30
ATOM     30  CG  ASP A   7       9.610  14.889  13.889  0.00  0.00    +0.367 C 
ATOM     31  OD2 ASP A   7      10.251  15.506  14.755  0.00  0.00    -0.246 OA
ATOM     32  OD1 ASP A   7       8.531  15.319  13.386  0.00  0.00    -0.246 OA
ENDBRANCH  29  30
ENDBRANCH  12  29
ENDBRANCH   9  12
ENDBRANCH   6   8
ENDBRANCH   3   6
ENDBRANCH   1   2
BRANCH   1  33
ATOM     33  N   CYS A   5       3.317  15.303  16.962  0.00  0.00    -0.296 N 
ATOM     34  C   TRP A   4       2.921  15.278  18.214  0.00  0.00    +0.241 C 
ATOM     35  O   TRP A   4       2.229  14.373  18.690  0.00  0.00    -0.273 OA
ATOM     36  H   CYS A   5       3.702  16.203  16.612  0.00  0.00    +0.150 HD
BRANCH  34  37
ATOM     37  CA  TRP A   4       3.166  16.532  19.073  0.00  0.00    +0.153 C 
BRANCH  37  38
ATOM     38  N   TRP A   4       1.869  16.890  19.649  0.00  0.00    -0.297 N 
ATOM     39  H   TRP A   4       1.353  16.227  20.262  0.00  0.00    +0.150 HD
ATOM     40  C   GLY A   3       1.372  18.089  19.363  0.00  0.00    +0.243 C 
ATOM     41  O   GLY A   3       1.973  18.991  18.729  0.00  0.00    -0.273 OA
BRANCH  40  42
ATOM     42  CA  GLY A   3      -0.023  18.438  19.903  0.00  0.00    +0.176 C 
BRANCH  42  43
ATOM     43  N   GLY A   3       0.062  19.734  20.540  0.00  0.00    -0.295 N 
ATOM     44  C   ALA A   2      -0.716  20.012  21.586  0.00  0.00    +0.241 C 
ATOM     45  O   ALA A   2      -1.685  19.368  21.981  0.00  0.00    -0.273 OA
ATOM     46  H   GLY A   3       0.729  20.447  20.183  0.00  0.00    +0.150 HD
BRANCH  44  47
ATOM     47  CA  ALA A   2      -0.498  21.400  22.196  0.00  0.00    +0.149 C 
ATOM     48  CB  ALA A   2       0.648  21.279  23.199  0.00  0.00    +0.031 C 
BRANCH  47  49
ATOM     49  N   ALA A   2      -1.681  21.867  22.898  0.00  0.00    -0.297 N 
ATOM     50  H   ALA A   2      -2.374  21.192  23.279  0.00  0.00    +0.150 HD
ATOM     51  C   ARG A   1      -1.860  23.189  23.044  0.00  0.00    +0.238 C 
ATOM     52  O   ARG A   1      -1.056  23.995  22.566  0.00  0.00    -0.274 OA
BRANCH  51  53
ATOM     53  CA  ARG A   1      -3.048  23.685  23.868  0.00  0.00    +0.145 C 
BRANCH  53  54
ATOM     54  N   ARG A   1      -2.535  24.841  24.574  0.00  0.00    -0.238 NA
ATOM     55  H   ARG A   1      -2.925  25.773  24.329  0.00  0.00    +0.142 HD
ENDBRANCH  53  54
BRANCH  53  56
ATOM     56  CB  ARG A   1      -4.214  24.175  23.043  0.00  0.00    +0.030 C 
BRANCH  56  57
ATOM     57  CG  ARG A   1      -4.806  23.190  22.063  0.00  0.00    +0.045 C 
BRANCH  57  58
ATOM     58  CD  ARG A   1      -4.154  23.449  20.695  0.00  0.00    +0.174 C 
BRANCH  58  59
ATOM     59  NE  ARG A   1      -3.832  22.130  20.227  0.00  0.00    -0.265 N 
ATOM     60  HE  ARG A   1      -4.316  21.331  20.683  0.00  0.00    +0.259 HD
ATOM     61  CZ  ARG A   1      -2.961  21.844  19.253  0.00  0.00    +0.342 C 
ATOM     62  NH2 ARG A   1      -2.862  20.533  19.060  0.00  0.00    -0.292 N 
ATOM     63 HH21 ARG A   1      -3.427  19.878  19.638  0.00  0.00    +0.255 HD
ATOM     64 HH22 ARG A   1      -2.220  20.162  18.331  0.00  0.00    +0.255 HD
ATOM     65  NH1 ARG A   1      -2.345  22.772  18.557  0.00  0.00    -0.292 N 
ATOM     66 HH11 ARG A   1      -2.527  23.777  18.754  0.00  0.00    +0.255 HD
ATOM     67 HH12 ARG A   1      -1.675  22.502  17.808  0.00  0.00    +0.255 HD
ENDBRANCH  58  59
ENDBRANCH  57  58
ENDBRANCH  56  57
ENDBRANCH  53  56
ENDBRANCH  51  53
ENDBRANCH  47  49
ENDBRANCH  44  47
ENDBRANCH  42  43
ENDBRANCH  40  42
ENDBRANCH  37  38
BRANCH  37  68
ATOM     68  CB  TRP A   4       4.272  16.218  20.101  0.00  0.00    +0.057 C 
BRANCH  68  69
ATOM     69  CG  TRP A   4       5.586  15.818  19.463  0.00  0.00    -0.002 A 
ATOM     70  CD1 TRP A   4       6.084  14.530  19.277  0.00  0.00    +0.068 A 
ATOM     71  NE1 TRP A   4       7.330  14.612  18.690  0.00  0.00    -0.352 N 
ATOM     72  CE2 TRP A   4       7.642  15.946  18.489  0.00  0.00    +0.056 A 
ATOM     73  CZ2 TRP A   4       8.788  16.495  17.902  0.00  0.00    +0.017 A 
ATOM     74  CH2 TRP A   4       8.826  17.874  17.822  0.00  0.00    +0.001 A 
ATOM     75  CZ3 TRP A   4       7.777  18.658  18.311  0.00  0.00    +0.000 A 
ATOM     76  CE3 TRP A   4       6.649  18.113  18.894  0.00  0.00    +0.001 A 
ATOM     77  HE1 TRP A   4       7.935  13.804  18.440  0.00  0.00    +0.166 HD
ATOM     78  CD2 TRP A   4       6.579  16.709  18.981  0.00  0.00    +0.013 A 
ENDBRANCH  68  69
ENDBRANCH  37  68
ENDBRANCH  34  37
ENDBRANCH   1  33
BRANCH   1  79
ATOM     79  CB  CYS A   5       2.692  14.688  14.670  0.00  0.00    +0.098 C 
BRANCH  79  80
ATOM     80  SG  CYS A   5       0.921  15.001  14.807  0.00  0.00    -0.080 S 
BRANCH  80  81
ATOM     81  SG  GLY A   3       0.054  13.197  15.143  0.00  0.00    -0.080 S 
BRANCH  81  82
ATOM     82  CB  GLY A   3      -0.529  13.199  16.833  0.00  0.00    +0.098 C 
BRANCH  82  83
ATOM     83  CA  GLY A   3       0.231  12.246  17.769  0.00  0.00    +0.160 C 
BRANCH  83  84
ATOM     84  C   GLY A   3      -0.511  12.238  19.113  0.00  0.00    +0.242 C 
ATOM     85  N   TRP A   4      -0.081  13.116  19.993  0.00  0.00    -0.295 N 
ATOM     86  H   TRP A   4       0.701  13.757  19.752  0.00  0.00    +0.150 HD
ATOM     87  O   GLY A   3      -1.368  11.344  19.335  0.00  0.00    -0.273 OA
BRANCH  85  88
ATOM     88  CA  TRP A   4      -0.709  13.186  21.313  0.00  0.00    +0.176 C 
BRANCH  88  89
ATOM     89  C   TRP A   4      -1.214  14.612  21.503  0.00  0.00    +0.243 C 
ATOM     90  N   CYS A   5      -2.472  14.774  21.895  0.00  0.00    -0.297 N 
ATOM     91  H   CYS A   5      -3.075  13.934  22.006  0.00  0.00    +0.150 HD
ATOM     92  O   TRP A   4      -0.443  15.519  21.206  0.00  0.00    -0.273 OA
BRANCH  90  93
ATOM     93  CA  CYS A   5      -3.042  16.094  22.177  0.00  0.00    +0.153 C 
BRANCH  93  94
ATOM     94  C   CYS A   5      -2.888  16.320  23.682  0.00  0.00    +0.241 C 
ATOM     95  O   CYS A   5      -3.254  15.426  24.467  0.00  0.00    -0.273 OA
ATOM     96  N   ALA A   6      -2.312  17.427  24.103  0.00  0.00    -0.298 N 
ATOM     97  H   ALA A   6      -1.998  18.148  23.422  0.00  0.00    +0.150 HD
BRANCH  96  98
ATOM     98  CA  ALA A   6      -2.119  17.631  25.534  0.00  0.00    +0.141 C 
BRANCH  98  99
ATOM     99  C   ALA A   6      -2.143  19.132  25.829  0.00  0.00    +0.227 C 
ATOM    100  O   ALA A   6      -2.101  19.882  24.843  0.00  0.00    -0.286 OA
ENDBRANCH  98  99
BRANCH  98 101
ATOM    101  CB  ALA A   6      -0.780  17.033  25.988  0.00  0.00    +0.054 C 
BRANCH 101 102
ATOM    102  CG  ALA A   6       0.450  17.549  25.252  0.00  0.00    -0.020 A 
ATOM    103  CD2 ALA A   6       1.376  18.387  25.867  0.00  0.00    -0.001 A 
ATOM    104  CE2 ALA A   6       2.492  18.879  25.212  0.00  0.00    +0.036 A 
ATOM    105  CZ  ALA A   6       2.711  18.498  23.892  0.00  0.00    +0.134 A 
ATOM    106  CE1 ALA A   6       1.830  17.654  23.275  0.00  0.00    +0.036 A 
ATOM    107  CD1 ALA A   6       0.695  17.201  23.917  0.00  0.00    -0.001 A 
BRANCH 105 108
ATOM    108  OH  ALA A   6       3.816  18.927  23.173  0.00  0.00    -0.506 OA
ATOM    109  HH  ALA A   6       4.363  19.528  23.738  0.00  0.00    +0.292 HD
ENDBRANCH 105 108
ENDBRANCH 101 102
ENDBRANCH  98 101
ENDBRANCH  96  98
ENDBRANCH  93  94
BRANCH  93 110
ATOM    110  CB  CYS A   5      -4.534  16.116  21.845  0.00  0.00    +0.055 C 
BRANCH 110 111
ATOM    111  CG  CYS A   5      -5.210  17.488  21.829  0.00  0.00    -0.020 A 
ATOM    112  CD2 CYS A   5      -5.465  18.287  22.925  0.00  0.00    -0.001 A 
ATOM    113  CE2 CYS A   5      -6.124  19.507  22.800  0.00  0.00    +0.036 A 
ATOM    114  CZ  CYS A   5      -6.544  19.927  21.543  0.00  0.00    +0.134 A 
ATOM    115  CE1 CYS A   5      -6.285  19.152  20.428  0.00  0.00    +0.036 A 
ATOM    116  CD1 CYS A   5      -5.607  17.950  20.570  0.00  0.00    -0.001 A 
BRANCH 114 117
ATOM    117  OH  CYS A   5      -7.206  21.110  21.304  0.00  0.00    -0.506 OA
ATOM    118  HH  CYS A   5      -7.400  21.189  20.336  0.00  0.00    +0.292 HD
ENDBRANCH 114 117
ENDBRANCH 110 111
ENDBRANCH  93 110
ENDBRANCH  90  93
ENDBRANCH  88  89
BRANCH  88 119
ATOM    119  CB  TRP A   4       0.243  12.813  22.466  0.00  0.00    +0.137 C 
ATOM    120  CG2 TRP A   4      -0.509  12.922  23.806  0.00  0.00    +0.034 C 
BRANCH 119 121
ATOM    121  OG1 TRP A   4       0.647  11.455  22.267  0.00  0.00    -0.382 OA
ATOM    122  HG1 TRP A   4       1.262  11.185  22.995  0.00  0.00    +0.210 HD
ENDBRANCH 119 121
ENDBRANCH  88 119
ENDBRANCH  85  88
ENDBRANCH  83  84
BRANCH  83 124
ATOM    123  C   ALA A   2       1.353  10.314  16.715  0.00  0.00    +0.241 C 
ATOM    124  N   GLY A   3       0.298  10.884  17.279  0.00  0.00    -0.296 N 
ATOM    125  H   GLY A   3      -0.558  10.302  17.379  0.00  0.00    +0.150 HD
ATOM    126  O   ALA A   2       2.422  10.918  16.507  0.00  0.00    -0.273 OA
BRANCH 123 127
ATOM    127  CA  ALA A   2       1.180   8.867  16.241  0.00  0.00    +0.149 C 
BRANCH 127 130
ATOM    128  C   ARG A   1      -1.001   8.689  15.233  0.00  0.00    +0.239 C 
ATOM    129  O   ARG A   1      -1.641   8.634  16.306  0.00  0.00    -0.274 OA
ATOM    130  N   ALA A   2       0.306   8.787  15.083  0.00  0.00    -0.297 N 
ATOM    131  H   ALA A   2       0.715   8.807  14.127  0.00  0.00    +0.150 HD
BRANCH 128 132
ATOM    132  CA  ARG A   1      -1.827   8.562  13.963  0.00  0.00    +0.149 C 
BRANCH 132 133
ATOM    133  N   ARG A   1      -2.687   7.370  14.139  0.00  0.00    -0.238 NA
ATOM    134  H   ARG A   1      -2.942   7.044  15.093  0.00  0.00    +0.142 HD
ENDBRANCH 132 133
BRANCH 132 135
ATOM    135  CB  ARG A   1      -2.842   9.708  13.771  0.00  0.00    +0.053 C 
BRANCH 135 136
ATOM    136  CG  ARG A   1      -2.327  11.006  13.188  0.00  0.00    -0.020 A 
ATOM    137  CD2 ARG A   1      -3.124  12.148  13.344  0.00  0.00    -0.001 A 
ATOM    138  CE2 ARG A   1      -2.716  13.373  12.854  0.00  0.00    +0.036 A 
ATOM    139  CZ  ARG A   1      -1.526  13.462  12.163  0.00  0.00    +0.134 A 
ATOM    140  CE1 ARG A   1      -0.695  12.361  12.030  0.00  0.00    +0.036 A 
ATOM    141  CD1 ARG A   1      -1.118  11.125  12.514  0.00  0.00    -0.001 A 
BRANCH 139 142
ATOM    142  OH  ARG A   1      -1.152  14.695  11.652  0.00  0.00    -0.506 OA
ATOM    143  HH  ARG A   1      -0.284  14.608  11.185  0.00  0.00    +0.292 HD
ENDBRANCH 139 142
ENDBRANCH 135 136
ENDBRANCH 132 135
ENDBRANCH 128 132
ENDBRANCH 127 130
BRANCH 127 144
ATOM    144  CB  ALA A   2       2.568   8.298  15.880  0.00  0.00    +0.029 C 
BRANCH 144 145
ATOM    145  CG  ALA A   2       2.517   6.759  15.745  0.00  0.00    +0.002 C 
ATOM    146  CD2 ALA A   2       2.272   6.218  17.142  0.00  0.00    +0.000 C 
ATOM    147  CD1 ALA A   2       3.787   6.213  15.129  0.00  0.00    +0.000 C 
ENDBRANCH 144 145
ENDBRANCH 127 144
ENDBRANCH 123 127
ENDBRANCH  83 124
ENDBRANCH  82  83
ENDBRANCH  81  82
ENDBRANCH  80  81
ENDBRANCH  79  80
ENDBRANCH   1  79
TORSDOF 57
REMARK  Name = ../refined-set-2016/1b3h/1b3h_pocket.pdb
REMARK  269 active torsions:
REMARK  status: ('A' for Active; 'I' for Inactive)
REMARK    1  A    between atoms: _1  and  _3
REMARK    2  A    between atoms: _3  and  _4
REMARK    3  A    between atoms: _3  and  _6
REMARK    4  A    between atoms: _6  and  _7
REMARK    5  A    between atoms: _12  and  _14
REMARK    6  A    between atoms: _14  and  _15
REMARK    7  A    between atoms: _17  and  _19
REMARK    8  A    between atoms: _19  and  _20
REMARK    9  A    between atoms: _19  and  _22
REMARK   10  A    between atoms: _22  and  _23
REMARK   11  A    between atoms: _25  and  _27
REMARK   12  A    between atoms: _27  and  _28
REMARK   13  A    between atoms: _27  and  _30
REMARK   14  A    between atoms: _30  and  _31
REMARK   15  A    between atoms: _31  and  _32
REMARK   16  A    between atoms: _37  and  _39
REMARK   17  A    between atoms: _39  and  _40
REMARK   18  A    between atoms: _39  and  _42
REMARK   19  A    between atoms: _42  and  _43
REMARK   20  A    between atoms: _46  and  _48
REMARK   21  A    between atoms: _48  and  _49
REMARK   22  A    between atoms: _48  and  _51
REMARK   23  A    between atoms: _51  and  _52
REMARK   24  A    between atoms: _52  and  _53
REMARK   25  A    between atoms: _56  and  _58
REMARK   26  A    between atoms: _58  and  _59
REMARK   27  A    between atoms: _61  and  _63
REMARK   28  A    between atoms: _63  and  _64
REMARK   29  A    between atoms: _63  and  _66
REMARK   30  A    between atoms: _70  and  _71
REMARK   31  A    between atoms: _76  and  _78
REMARK   32  A    between atoms: _78  and  _79
REMARK   33  A    between atoms: _78  and  _81
REMARK   34  A    between atoms: _81  and  _82
REMARK   35  A    between atoms: _82  and  _83
REMARK   36  A    between atoms: _86  and  _88
REMARK   37  A    between atoms: _88  and  _89
REMARK   38  A    between atoms: _88  and  _91
REMARK   39  A    between atoms: _91  and  _92
REMARK   40  A    between atoms: _94  and  _96
REMARK   41  A    between atoms: _96  and  _97
REMARK   42  A    between atoms: _96  and  _99
REMARK   43  A    between atoms: _99  and  _100
REMARK   44  A    between atoms: _105  and  _107
REMARK   45  A    between atoms: _107  and  _108
REMARK   46  A    between atoms: _107  and  _110
REMARK   47  A    between atoms: _110  and  _111
REMARK   48  A    between atoms: _111  and  _112
REMARK   49  A    between atoms: _112  and  _113
REMARK   50  A    between atoms: _123  and  _124
REMARK   51  A    between atoms: _129  and  _131
REMARK   52  A    between atoms: _131  and  _132
REMARK   53  A    between atoms: _131  and  _134
REMARK   54  A    between atoms: _134  and  _135
REMARK   55  A    between atoms: _140  and  _141
REMARK   56  A    between atoms: _143  and  _145
REMARK   57  A    between atoms: _145  and  _146
REMARK   58  A    between atoms: _145  and  _148
REMARK   59  A    between atoms: _148  and  _149
REMARK   60  A    between atoms: _154  and  _155
REMARK   61  A    between atoms: _157  and  _159
REMARK   62  A    between atoms: _159  and  _160
REMARK   63  A    between atoms: _159  and  _162
REMARK   64  A    between atoms: _162  and  _163
REMARK   65  A    between atoms: _168  and  _169
REMARK   66  A    between atoms: _171  and  _173
REMARK   67  A    between atoms: _173  and  _174
REMARK   68  A    between atoms: _173  and  _176
REMARK   69  A    between atoms: _179  and  _181
REMARK   70  A    between atoms: _181  and  _182
REMARK   71  A    between atoms: _181  and  _184
REMARK   72  A    between atoms: _184  and  _185
REMARK   73  A    between atoms: _191  and  _192
REMARK   74  A    between atoms: _197  and  _199
REMARK   75  A    between atoms: _199  and  _200
REMARK   76  A    between atoms: _199  and  _202
REMARK   77  A    between atoms: _202  and  _203
REMARK   78  A    between atoms: _205  and  _207
REMARK   79  A    between atoms: _207  and  _208
REMARK   80  A    between atoms: _207  and  _210
REMARK   81  A    between atoms: _210  and  _211
REMARK   82  A    between atoms: _216  and  _217
REMARK   83  A    between atoms: _219  and  _221
REMARK   84  A    between atoms: _221  and  _222
REMARK   85  A    between atoms: _221  and  _224
REMARK   86  A    between atoms: _224  and  _225
REMARK   87  A    between atoms: _230  and  _232
REMARK   88  A    between atoms: _232  and  _233
REMARK   89  A    between atoms: _232  and  _235
REMARK   90  A    between atoms: _235  and  _236
REMARK   91  A    between atoms: _241  and  _243
REMARK   92  A    between atoms: _243  and  _244
REMARK   93  A    between atoms: _243  and  _246
REMARK   94  A    between atoms: _246  and  _247
REMARK   95  A    between atoms: _247  and  _248
REMARK   96  A    between atoms: _250  and  _252
REMARK   97  A    between atoms: _252  and  _253
REMARK   98  A    between atoms: _252  and  _255
REMARK   99  A    between atoms: _255  and  _256
REMARK  100  A    between atoms: _261  and  _262
REMARK  101  A    between atoms: _264  and  _266
REMARK  102  A    between atoms: _266  and  _267
REMARK  103  A    between atoms: _266  and  _269
REMARK  104  A    between atoms: _269  and  _270
REMARK  105  A    between atoms: _273  and  _275
REMARK  106  A    between atoms: _275  and  _276
REMARK  107  A    between atoms: _275  and  _278
REMARK  108  A    between atoms: _278  and  _279
REMARK  109  A    between atoms: _279  and  _496
REMARK  110  A    between atoms: _280  and  _282
REMARK  111  A    between atoms: _282  and  _283
REMARK  112  A    between atoms: _282  and  _285
REMARK  113  A    between atoms: _285  and  _286
REMARK  114  A    between atoms: _289  and  _291
REMARK  115  A    between atoms: _291  and  _292
REMARK  116  A    between atoms: _291  and  _294
REMARK  117  A    between atoms: _294  and  _295
REMARK  118  A    between atoms: _300  and  _301
REMARK  119  A    between atoms: _303  and  _305
REMARK  120  A    between atoms: _305  and  _306
REMARK  121  A    between atoms: _305  and  _308
REMARK  122  A    between atoms: _308  and  _309
REMARK  123  A    between atoms: _314  and  _315
REMARK  124  A    between atoms: _317  and  _319
REMARK  125  A    between atoms: _319  and  _320
REMARK  126  A    between atoms: _319  and  _322
REMARK  127  A    between atoms: _322  and  _323
REMARK  128  A    between atoms: _323  and  _324
REMARK  129  A    between atoms: _327  and  _329
REMARK  130  A    between atoms: _329  and  _330
REMARK  131  A    between atoms: _329  and  _332
REMARK  132  A    between atoms: _332  and  _333
REMARK  133  A    between atoms: _338  and  _339
REMARK  134  A    between atoms: _341  and  _343
REMARK  135  A    between atoms: _343  and  _344
REMARK  136  A    between atoms: _343  and  _346
REMARK  137  A    between atoms: _346  and  _347
REMARK  138  A    between atoms: _352  and  _354
REMARK  139  A    between atoms: _354  and  _355
REMARK  140  A    between atoms: _354  and  _357
REMARK  141  A    between atoms: _357  and  _358
REMARK  142  A    between atoms: _361  and  _363
REMARK  143  A    between atoms: _363  and  _364
REMARK  144  A    between atoms: _363  and  _366
REMARK  145  A    between atoms: _366  and  _367
REMARK  146  A    between atoms: _372  and  _374
REMARK  147  A    between atoms: _374  and  _375
REMARK  148  A    between atoms: _374  and  _377
REMARK  149  A    between atoms: _377  and  _378
REMARK  150  A    between atoms: _388  and  _390
REMARK  151  A    between atoms: _390  and  _391
REMARK  152  A    between atoms: _390  and  _393
REMARK  153  A    between atoms: _393  and  _394
REMARK  154  A    between atoms: _400  and  _402
REMARK  155  A    between atoms: _402  and  _403
REMARK  156  A    between atoms: _402  and  _405
REMARK  157  A    between atoms: _405  and  _406
REMARK  158  A    between atoms: _409  and  _411
REMARK  159  A    between atoms: _411  and  _412
REMARK  160  A    between atoms: _411  and  _414
REMARK  161  A    between atoms: _414  and  _415
REMARK  162  A    between atoms: _418  and  _420
REMARK  163  A    between atoms: _420  and  _421
REMARK  164  A    between atoms: _420  and  _423
REMARK  165  A    between atoms: _423  and  _424
REMARK  166  A    between atoms: _424  and  _425
REMARK  167  A    between atoms: _425  and  _426
REMARK  168  A    between atoms: _435  and  _437
REMARK  169  A    between atoms: _437  and  _438
REMARK  170  A    between atoms: _437  and  _440
REMARK  171  A    between atoms: _440  and  _441
REMARK  172  A    between atoms: _446  and  _448
REMARK  173  A    between atoms: _448  and  _449
REMARK  174  A    between atoms: _448  and  _451
REMARK  175  A    between atoms: _451  and  _452
REMARK  176  A    between atoms: _452  and  _453
REMARK  177  A    between atoms: _453  and  _454
REMARK  178  A    between atoms: _463  and  _465
REMARK  179  A    between atoms: _465  and  _466
REMARK  180  A    between atoms: _469  and  _471
REMARK  181  A    between atoms: _471  and  _472
REMARK  182  A    between atoms: _474  and  _476
REMARK  183  A    between atoms: _476  and  _477
REMARK  184  A    between atoms: _476  and  _479
REMARK  185  A    between atoms: _479  and  _480
REMARK  186  A    between atoms: _490  and  _492
REMARK  187  A    between atoms: _492  and  _493
REMARK  188  A    between atoms: _492  and  _495
REMARK  189  A    between atoms: _495  and  _496
REMARK  190  A    between atoms: _497  and  _499
REMARK  191  A    between atoms: _499  and  _500
REMARK  192  A    between atoms: _503  and  _505
REMARK  193  A    between atoms: _505  and  _506
REMARK  194  A    between atoms: _505  and  _508
REMARK  195  A    between atoms: _508  and  _509
REMARK  196  A    between atoms: _512  and  _514
REMARK  197  A    between atoms: _514  and  _515
REMARK  198  A    between atoms: _514  and  _517
REMARK  199  A    between atoms: _517  and  _518
REMARK  200  A    between atoms: _523  and  _524
REMARK  201  A    between atoms: _526  and  _528
REMARK  202  A    between atoms: _528  and  _529
REMARK  203  A    between atoms: _528  and  _531
REMARK  204  A    between atoms: _531  and  _532
REMARK  205  A    between atoms: _534  and  _536
REMARK  206  A    between atoms: _536  and  _537
REMARK  207  A    between atoms: _536  and  _539
REMARK  208  A    between atoms: _539  and  _540
REMARK  209  A    between atoms: _546  and  _548
REMARK  210  A    between atoms: _548  and  _549
REMARK  211  A    between atoms: _548  and  _551
REMARK  212  A    between atoms: _551  and  _552
REMARK  213  A    between atoms: _555  and  _557
REMARK  214  A    between atoms: _557  and  _558
REMARK  215  A    between atoms: _557  and  _560
REMARK  216  A    between atoms: _560  and  _561
REMARK  217  A    between atoms: _563  and  _565
REMARK  218  A    between atoms: _565  and  _566
REMARK  219  A    between atoms: _565  and  _568
REMARK  220  A    between atoms: _568  and  _569
REMARK  221  A    between atoms: _574  and  _576
REMARK  222  A    between atoms: _576  and  _577
REMARK  223  A    between atoms: _576  and  _579
REMARK  224  A    between atoms: _579  and  _580
REMARK  225  A    between atoms: _585  and  _587
REMARK  226  A    between atoms: _587  and  _588
REMARK  227  A    between atoms: _587  and  _590
REMARK  228  A    between atoms: _590  and  _591
REMARK  229  A    between atoms: _594  and  _596
REMARK  230  A    between atoms: _596  and  _597
REMARK  231  A    between atoms: _600  and  _602
REMARK  232  A    between atoms: _602  and  _603
REMARK  233  A    between atoms: _602  and  _605
REMARK  234  A    between atoms: _605  and  _606
REMARK  235  A    between atoms: _611  and  _612
REMARK  236  A    between atoms: _614  and  _616
REMARK  237  A    between atoms: _616  and  _617
REMARK  238  A    between atoms: _616  and  _619
REMARK  239  A    between atoms: _619  and  _620
REMARK  240  A    between atoms: _625  and  _626
REMARK  241  A    between atoms: _628  and  _630
REMARK  242  A    between atoms: _630  and  _631
REMARK  243  A    between atoms: _630  and  _633
REMARK  244  A    between atoms: _636  and  _638
REMARK  245  A    between atoms: _638  and  _639
REMARK  246  A    between atoms: _638  and  _641
REMARK  247  A    between atoms: _641  and  _642
REMARK  248  A    between atoms: _647  and  _649
REMARK  249  A    between atoms: _649  and  _650
REMARK  250  A    between atoms: _653  and  _655
REMARK  251  A    between atoms: _655  and  _656
REMARK  252  A    between atoms: _655  and  _658
REMARK  253  A    between atoms: _658  and  _659
REMARK  254  A    between atoms: _659  and  _660
REMARK  255  A    between atoms: _660  and  _661
REMARK  256  A    between atoms: _670  and  _672
REMARK  257  A    between atoms: _672  and  _673
REMARK  258  A    between atoms: _672  and  _675
REMARK  259  A    between atoms: _675  and  _676
REMARK  260  A    between atoms: _679  and  _681
REMARK  261  A    between atoms: _681  and  _682
REMARK  262  A    between atoms: _681  and  _684
REMARK  263  A    between atoms: _684  and  _685
REMARK  264  A    between atoms: _688  and  _690
REMARK  265  A    between atoms: _690  and  _691
REMARK  266  A    between atoms: _690  and  _693
REMARK  267  A    between atoms: _693  and  _694
REMARK  268  A    between atoms: _724  and  _725
REMARK  269  A    between atoms: _725  and  _731
REMARK                            x       y       z     vdW  Elec       q    Type
REMARK                         _______ _______ _______ _____ _____    ______ ____
ROOT
ATOM      1  CA  GLU A   1       1.481  22.042  27.692  0.00  0.00    +0.134 C 
ENDROOT
BRANCH   1   2
ATOM      2  N   GLU A   1       0.090  21.795  27.365  0.00  0.00    -0.239 NA
ATOM      3  H   GLU A   1      -0.305  22.275  26.531  0.00  0.00    +0.142 HD
ENDBRANCH   1   2
BRANCH   1   4
ATOM      4  C   GLU A   1       1.520  23.105  28.782  0.00  0.00    +0.224 C 
ATOM      5  O   GLU A   1       0.934  24.198  28.685  0.00  0.00    -0.287 OA
ENDBRANCH   1   4
BRANCH   1   6
ATOM      6  CB  GLU A   1       2.232  22.519  26.449  0.00  0.00    +0.037 C 
BRANCH   6   7
ATOM      7  CG  GLU A   1       3.686  22.955  26.662  0.00  0.00    +0.116 C 
BRANCH   7   8
ATOM      8  CD  GLU A   1       4.169  23.515  25.326  0.00  0.00    +0.365 C 
ATOM      9  OE2 GLU A   1       3.878  24.678  24.971  0.00  0.00    -0.246 OA
ATOM     10  OE1 GLU A   1       4.798  22.725  24.595  0.00  0.00    -0.246 OA
ENDBRANCH   7   8
ENDBRANCH   6   7
ENDBRANCH   1   6
TORSDOF 5
REMARK  Name = ../refined-set-2016/1b3h/1b3h_pocket.pdb
REMARK  269 active torsions:
REMARK  status: ('A' for Active; 'I' for Inactive)
REMARK    1  A    between atoms: _1  and  _3
REMARK    2  A    between atoms: _3  and  _4
REMARK    3  A    between atoms: _3  and  _6
REMARK    4  A    between atoms: _6  and  _7
REMARK    5  A    between atoms: _12  and  _14
REMARK    6  A    between atoms: _14  and  _15
REMARK    7  A    between atoms: _17  and  _19
REMARK    8  A    between atoms: _19  and  _20
REMARK    9  A    between atoms: _19  and  _22
REMARK   10  A    between atoms: _22  and  _23
REMARK   11  A    between atoms: _25  and  _27
REMARK   12  A    between atoms: _27  and  _28
REMARK   13  A    between atoms: _27  and  _30
REMARK   14  A    between atoms: _30  and  _31
REMARK   15  A    between atoms: _31  and  _32
REMARK   16  A    between atoms: _37  and  _39
REMARK   17  A    between atoms: _39  and  _40
REMARK   18  A    between atoms: _39  and  _42
REMARK   19  A    between atoms: _42  and  _43
REMARK   20  A    between atoms: _46  and  _48
REMARK   21  A    between atoms: _48  and  _49
REMARK   22  A    between atoms: _48  and  _51
REMARK   23  A    between atoms: _51  and  _52
REMARK   24  A    between atoms: _52  and  _53
REMARK   25  A    between atoms: _56  and  _58
REMARK   26  A    between atoms: _58  and  _59
REMARK   27  A    between atoms: _61  and  _63
REMARK   28  A    between atoms: _63  and  _64
REMARK   29  A    between atoms: _63  and  _66
REMARK   30  A    between atoms: _70  and  _71
REMARK   31  A    between atoms: _76  and  _78
REMARK   32  A    between atoms: _78  and  _79
REMARK   33  A    between atoms: _78  and  _81
REMARK   34  A    between atoms: _81  and  _82
REMARK   35  A    between atoms: _82  and  _83
REMARK   36  A    between atoms: _86  and  _88
REMARK   37  A    between atoms: _88  and  _89
REMARK   38  A    between atoms: _88  and  _91
REMARK   39  A    between atoms: _91  and  _92
REMARK   40  A    between atoms: _94  and  _96
REMARK   41  A    between atoms: _96  and  _97
REMARK   42  A    between atoms: _96  and  _99
REMARK   43  A    between atoms: _99  and  _100
REMARK   44  A    between atoms: _105  and  _107
REMARK   45  A    between atoms: _107  and  _108
REMARK   46  A    between atoms: _107  and  _110
REMARK   47  A    between atoms: _110  and  _111
REMARK   48  A    between atoms: _111  and  _112
REMARK   49  A    between atoms: _112  and  _113
REMARK   50  A    between atoms: _123  and  _124
REMARK   51  A    between atoms: _129  and  _131
REMARK   52  A    between atoms: _131  and  _132
REMARK   53  A    between atoms: _131  and  _134
REMARK   54  A    between atoms: _134  and  _135
REMARK   55  A    between atoms: _140  and  _141
REMARK   56  A    between atoms: _143  and  _145
REMARK   57  A    between atoms: _145  and  _146
REMARK   58  A    between atoms: _145  and  _148
REMARK   59  A    between atoms: _148  and  _149
REMARK   60  A    between atoms: _154  and  _155
REMARK   61  A    between atoms: _157  and  _159
REMARK   62  A    between atoms: _159  and  _160
REMARK   63  A    between atoms: _159  and  _162
REMARK   64  A    between atoms: _162  and  _163
REMARK   65  A    between atoms: _168  and  _169
REMARK   66  A    between atoms: _171  and  _173
REMARK   67  A    between atoms: _173  and  _174
REMARK   68  A    between atoms: _173  and  _176
REMARK   69  A    between atoms: _179  and  _181
REMARK   70  A    between atoms: _181  and  _182
REMARK   71  A    between atoms: _181  and  _184
REMARK   72  A    between atoms: _184  and  _185
REMARK   73  A    between atoms: _191  and  _192
REMARK   74  A    between atoms: _197  and  _199
REMARK   75  A    between atoms: _199  and  _200
REMARK   76  A    between atoms: _199  and  _202
REMARK   77  A    between atoms: _202  and  _203
REMARK   78  A    between atoms: _205  and  _207
REMARK   79  A    between atoms: _207  and  _208
REMARK   80  A    between atoms: _207  and  _210
REMARK   81  A    between atoms: _210  and  _211
REMARK   82  A    between atoms: _216  and  _217
REMARK   83  A    between atoms: _219  and  _221
REMARK   84  A    between atoms: _221  and  _222
REMARK   85  A    between atoms: _221  and  _224
REMARK   86  A    between atoms: _224  and  _225
REMARK   87  A    between atoms: _230  and  _232
REMARK   88  A    between atoms: _232  and  _233
REMARK   89  A    between atoms: _232  and  _235
REMARK   90  A    between atoms: _235  and  _236
REMARK   91  A    between atoms: _241  and  _243
REMARK   92  A    between atoms: _243  and  _244
REMARK   93  A    between atoms: _243  and  _246
REMARK   94  A    between atoms: _246  and  _247
REMARK   95  A    between atoms: _247  and  _248
REMARK   96  A    between atoms: _250  and  _252
REMARK   97  A    between atoms: _252  and  _253
REMARK   98  A    between atoms: _252  and  _255
REMARK   99  A    between atoms: _255  and  _256
REMARK  100  A    between atoms: _261  and  _262
REMARK  101  A    between atoms: _264  and  _266
REMARK  102  A    between atoms: _266  and  _267
REMARK  103  A    between atoms: _266  and  _269
REMARK  104  A    between atoms: _269  and  _270
REMARK  105  A    between atoms: _273  and  _275
REMARK  106  A    between atoms: _275  and  _276
REMARK  107  A    between atoms: _275  and  _278
REMARK  108  A    between atoms: _278  and  _279
REMARK  109  A    between atoms: _279  and  _496
REMARK  110  A    between atoms: _280  and  _282
REMARK  111  A    between atoms: _282  and  _283
REMARK  112  A    between atoms: _282  and  _285
REMARK  113  A    between atoms: _285  and  _286
REMARK  114  A    between atoms: _289  and  _291
REMARK  115  A    between atoms: _291  and  _292
REMARK  116  A    between atoms: _291  and  _294
REMARK  117  A    between atoms: _294  and  _295
REMARK  118  A    between atoms: _300  and  _301
REMARK  119  A    between atoms: _303  and  _305
REMARK  120  A    between atoms: _305  and  _306
REMARK  121  A    between atoms: _305  and  _308
REMARK  122  A    between atoms: _308  and  _309
REMARK  123  A    between atoms: _314  and  _315
REMARK  124  A    between atoms: _317  and  _319
REMARK  125  A    between atoms: _319  and  _320
REMARK  126  A    between atoms: _319  and  _322
REMARK  127  A    between atoms: _322  and  _323
REMARK  128  A    between atoms: _323  and  _324
REMARK  129  A    between atoms: _327  and  _329
REMARK  130  A    between atoms: _329  and  _330
REMARK  131  A    between atoms: _329  and  _332
REMARK  132  A    between atoms: _332  and  _333
REMARK  133  A    between atoms: _338  and  _339
REMARK  134  A    between atoms: _341  and  _343
REMARK  135  A    between atoms: _343  and  _344
REMARK  136  A    between atoms: _343  and  _346
REMARK  137  A    between atoms: _346  and  _347
REMARK  138  A    between atoms: _352  and  _354
REMARK  139  A    between atoms: _354  and  _355
REMARK  140  A    between atoms: _354  and  _357
REMARK  141  A    between atoms: _357  and  _358
REMARK  142  A    between atoms: _361  and  _363
REMARK  143  A    between atoms: _363  and  _364
REMARK  144  A    between atoms: _363  and  _366
REMARK  145  A    between atoms: _366  and  _367
REMARK  146  A    between atoms: _372  and  _374
REMARK  147  A    between atoms: _374  and  _375
REMARK  148  A    between atoms: _374  and  _377
REMARK  149  A    between atoms: _377  and  _378
REMARK  150  A    between atoms: _388  and  _390
REMARK  151  A    between atoms: _390  and  _391
REMARK  152  A    between atoms: _390  and  _393
REMARK  153  A    between atoms: _393  and  _394
REMARK  154  A    between atoms: _400  and  _402
REMARK  155  A    between atoms: _402  and  _403
REMARK  156  A    between atoms: _402  and  _405
REMARK  157  A    between atoms: _405  and  _406
REMARK  158  A    between atoms: _409  and  _411
REMARK  159  A    between atoms: _411  and  _412
REMARK  160  A    between atoms: _411  and  _414
REMARK  161  A    between atoms: _414  and  _415
REMARK  162  A    between atoms: _418  and  _420
REMARK  163  A    between atoms: _420  and  _421
REMARK  164  A    between atoms: _420  and  _423
REMARK  165  A    between atoms: _423  and  _424
REMARK  166  A    between atoms: _424  and  _425
REMARK  167  A    between atoms: _425  and  _426
REMARK  168  A    between atoms: _435  and  _437
REMARK  169  A    between atoms: _437  and  _438
REMARK  170  A    between atoms: _437  and  _440
REMARK  171  A    between atoms: _440  and  _441
REMARK  172  A    between atoms: _446  and  _448
REMARK  173  A    between atoms: _448  and  _449
REMARK  174  A    between atoms: _448  and  _451
REMARK  175  A    between atoms: _451  and  _452
REMARK  176  A    between atoms: _452  and  _453
REMARK  177  A    between atoms: _453  and  _454
REMARK  178  A    between atoms: _463  and  _465
REMARK  179  A    between atoms: _465  and  _466
REMARK  180  A    between atoms: _469  and  _471
REMARK  181  A    between atoms: _471  and  _472
REMARK  182  A    between atoms: _474  and  _476
REMARK  183  A    between atoms: _476  and  _477
REMARK  184  A    between atoms: _476  and  _479
REMARK  185  A    between atoms: _479  and  _480
REMARK  186  A    between atoms: _490  and  _492
REMARK  187  A    between atoms: _492  and  _493
REMARK  188  A    between atoms: _492  and  _495
REMARK  189  A    between atoms: _495  and  _496
REMARK  190  A    between atoms: _497  and  _499
REMARK  191  A    between atoms: _499  and  _500
REMARK  192  A    between atoms: _503  and  _505
REMARK  193  A    between atoms: _505  and  _506
REMARK  194  A    between atoms: _505  and  _508
REMARK  195  A    between atoms: _508  and  _509
REMARK  196  A    between atoms: _512  and  _514
REMARK  197  A    between atoms: _514  and  _515
REMARK  198  A    between atoms: _514  and  _517
REMARK  199  A    between atoms: _517  and  _518
REMARK  200  A    between atoms: _523  and  _524
REMARK  201  A    between atoms: _526  and  _528
REMARK  202  A    between atoms: _528  and  _529
REMARK  203  A    between atoms: _528  and  _531
REMARK  204  A    between atoms: _531  and  _532
REMARK  205  A    between atoms: _534  and  _536
REMARK  206  A    between atoms: _536  and  _537
REMARK  207  A    between atoms: _536  and  _539
REMARK  208  A    between atoms: _539  and  _540
REMARK  209  A    between atoms: _546  and  _548
REMARK  210  A    between atoms: _548  and  _549
REMARK  211  A    between atoms: _548  and  _551
REMARK  212  A    between atoms: _551  and  _552
REMARK  213  A    between atoms: _555  and  _557
REMARK  214  A    between atoms: _557  and  _558
REMARK  215  A    between atoms: _557  and  _560
REMARK  216  A    between atoms: _560  and  _561
REMARK  217  A    between atoms: _563  and  _565
REMARK  218  A    between atoms: _565  and  _566
REMARK  219  A    between atoms: _565  and  _568
REMARK  220  A    between atoms: _568  and  _569
REMARK  221  A    between atoms: _574  and  _576
REMARK  222  A    between atoms: _576  and  _577
REMARK  223  A    between atoms: _576  and  _579
REMARK  224  A    between atoms: _579  and  _580
REMARK  225  A    between atoms: _585  and  _587
REMARK  226  A    between atoms: _587  and  _588
REMARK  227  A    between atoms: _587  and  _590
REMARK  228  A    between atoms: _590  and  _591
REMARK  229  A    between atoms: _594  and  _596
REMARK  230  A    between atoms: _596  and  _597
REMARK  231  A    between atoms: _600  and  _602
REMARK  232  A    between atoms: _602  and  _603
REMARK  233  A    between atoms: _602  and  _605
REMARK  234  A    between atoms: _605  and  _606
REMARK  235  A    between atoms: _611  and  _612
REMARK  236  A    between atoms: _614  and  _616
REMARK  237  A    between atoms: _616  and  _617
REMARK  238  A    between atoms: _616  and  _619
REMARK  239  A    between atoms: _619  and  _620
REMARK  240  A    between atoms: _625  and  _626
REMARK  241  A    between atoms: _628  and  _630
REMARK  242  A    between atoms: _630  and  _631
REMARK  243  A    between atoms: _630  and  _633
REMARK  244  A    between atoms: _636  and  _638
REMARK  245  A    between atoms: _638  and  _639
REMARK  246  A    between atoms: _638  and  _641
REMARK  247  A    between atoms: _641  and  _642
REMARK  248  A    between atoms: _647  and  _649
REMARK  249  A    between atoms: _649  and  _650
REMARK  250  A    between atoms: _653  and  _655
REMARK  251  A    between atoms: _655  and  _656
REMARK  252  A    between atoms: _655  and  _658
REMARK  253  A    between atoms: _658  and  _659
REMARK  254  A    between atoms: _659  and  _660
REMARK  255  A    between atoms: _660  and  _661
REMARK  256  A    between atoms: _670  and  _672
REMARK  257  A    between atoms: _672  and  _673
REMARK  258  A    between atoms: _672  and  _675
REMARK  259  A    between atoms: _675  and  _676
REMARK  260  A    between atoms: _679  and  _681
REMARK  261  A    between atoms: _681  and  _682
REMARK  262  A    between atoms: _681  and  _684
REMARK  263  A    between atoms: _684  and  _685
REMARK  264  A    between atoms: _688  and  _690
REMARK  265  A    between atoms: _690  and  _691
REMARK  266  A    between atoms: _690  and  _693
REMARK  267  A    between atoms: _693  and  _694
REMARK  268  A    between atoms: _724  and  _725
REMARK  269  A    between atoms: _725  and  _731
REMARK                            x       y       z     vdW  Elec       q    Type
REMARK                         _______ _______ _______ _____ _____    ______ ____
ROOT
ATOM      1  CG  TYR A   1       4.914  13.596  25.544  0.00  0.00    -0.020 A 
ATOM      2  CD2 TYR A   1       6.277  13.685  25.323  0.00  0.00    -0.001 A 
ATOM      3  CE2 TYR A   1       6.810  14.622  24.478  0.00  0.00    +0.036 A 
ATOM      4  CZ  TYR A   1       5.950  15.491  23.826  0.00  0.00    +0.134 A 
ATOM      5  CE1 TYR A   1       4.583  15.431  24.028  0.00  0.00    +0.036 A 
ATOM      6  CD1 TYR A   1       4.057  14.486  24.890  0.00  0.00    -0.001 A 
ENDROOT
BRANCH   4   7
ATOM      7  OH  TYR A   1       6.464  16.445  22.981  0.00  0.00    -0.506 OA
ATOM      8  HH  TYR A   1       7.074  17.039  23.487  0.00  0.00    +0.292 HD
ENDBRANCH   4   7
BRANCH   1   9
ATOM      9  CB  TYR A   1       4.397  12.559  26.531  0.00  0.00    +0.051 C 
BRANCH   9  10
ATOM     10  CA  TYR A   1       3.152  11.796  26.133  0.00  0.00    +0.137 C 
BRANCH  10  11
ATOM     11  N   TYR A   1       2.734  10.913  27.234  0.00  0.00    -0.239 NA
ATOM     12  H   TYR A   1       3.470  10.532  27.862  0.00  0.00    +0.142 HD
ENDBRANCH  10  11
BRANCH  10  13
ATOM     13  C   TYR A   1       3.395  10.922  24.903  0.00  0.00    +0.224 C 
ATOM     14  O   TYR A   1       2.673  11.004  23.920  0.00  0.00    -0.287 OA
ENDBRANCH  10  13
ENDBRANCH   9  10
ENDBRANCH   1   9
TORSDOF 5
REMARK  Name = ../refined-set-2016/1b3h/1b3h_pocket.pdb
REMARK  269 active torsions:
REMARK  status: ('A' for Active; 'I' for Inactive)
REMARK    1  A    between atoms: _1  and  _3
REMARK    2  A    between atoms: _3  and  _4
REMARK    3  A    between atoms: _3  and  _6
REMARK    4  A    between atoms: _6  and  _7
REMARK    5  A    between atoms: _12  and  _14
REMARK    6  A    between atoms: _14  and  _15
REMARK    7  A    between atoms: _17  and  _19
REMARK    8  A    between atoms: _19  and  _20
REMARK    9  A    between atoms: _19  and  _22
REMARK   10  A    between atoms: _22  and  _23
REMARK   11  A    between atoms: _25  and  _27
REMARK   12  A    between atoms: _27  and  _28
REMARK   13  A    between atoms: _27  and  _30
REMARK   14  A    between atoms: _30  and  _31
REMARK   15  A    between atoms: _31  and  _32
REMARK   16  A    between atoms: _37  and  _39
REMARK   17  A    between atoms: _39  and  _40
REMARK   18  A    between atoms: _39  and  _42
REMARK   19  A    between atoms: _42  and  _43
REMARK   20  A    between atoms: _46  and  _48
REMARK   21  A    between atoms: _48  and  _49
REMARK   22  A    between atoms: _48  and  _51
REMARK   23  A    between atoms: _51  and  _52
REMARK   24  A    between atoms: _52  and  _53
REMARK   25  A    between atoms: _56  and  _58
REMARK   26  A    between atoms: _58  and  _59
REMARK   27  A    between atoms: _61  and  _63
REMARK   28  A    between atoms: _63  and  _64
REMARK   29  A    between atoms: _63  and  _66
REMARK   30  A    between atoms: _70  and  _71
REMARK   31  A    between atoms: _76  and  _78
REMARK   32  A    between atoms: _78  and  _79
REMARK   33  A    between atoms: _78  and  _81
REMARK   34  A    between atoms: _81  and  _82
REMARK   35  A    between atoms: _82  and  _83
REMARK   36  A    between atoms: _86  and  _88
REMARK   37  A    between atoms: _88  and  _89
REMARK   38  A    between atoms: _88  and  _91
REMARK   39  A    between atoms: _91  and  _92
REMARK   40  A    between atoms: _94  and  _96
REMARK   41  A    between atoms: _96  and  _97
REMARK   42  A    between atoms: _96  and  _99
REMARK   43  A    between atoms: _99  and  _100
REMARK   44  A    between atoms: _105  and  _107
REMARK   45  A    between atoms: _107  and  _108
REMARK   46  A    between atoms: _107  and  _110
REMARK   47  A    between atoms: _110  and  _111
REMARK   48  A    between atoms: _111  and  _112
REMARK   49  A    between atoms: _112  and  _113
REMARK   50  A    between atoms: _123  and  _124
REMARK   51  A    between atoms: _129  and  _131
REMARK   52  A    between atoms: _131  and  _132
REMARK   53  A    between atoms: _131  and  _134
REMARK   54  A    between atoms: _134  and  _135
REMARK   55  A    between atoms: _140  and  _141
REMARK   56  A    between atoms: _143  and  _145
REMARK   57  A    between atoms: _145  and  _146
REMARK   58  A    between atoms: _145  and  _148
REMARK   59  A    between atoms: _148  and  _149
REMARK   60  A    between atoms: _154  and  _155
REMARK   61  A    between atoms: _157  and  _159
REMARK   62  A    between atoms: _159  and  _160
REMARK   63  A    between atoms: _159  and  _162
REMARK   64  A    between atoms: _162  and  _163
REMARK   65  A    between atoms: _168  and  _169
REMARK   66  A    between atoms: _171  and  _173
REMARK   67  A    between atoms: _173  and  _174
REMARK   68  A    between atoms: _173  and  _176
REMARK   69  A    between atoms: _179  and  _181
REMARK   70  A    between atoms: _181  and  _182
REMARK   71  A    between atoms: _181  and  _184
REMARK   72  A    between atoms: _184  and  _185
REMARK   73  A    between atoms: _191  and  _192
REMARK   74  A    between atoms: _197  and  _199
REMARK   75  A    between atoms: _199  and  _200
REMARK   76  A    between atoms: _199  and  _202
REMARK   77  A    between atoms: _202  and  _203
REMARK   78  A    between atoms: _205  and  _207
REMARK   79  A    between atoms: _207  and  _208
REMARK   80  A    between atoms: _207  and  _210
REMARK   81  A    between atoms: _210  and  _211
REMARK   82  A    between atoms: _216  and  _217
REMARK   83  A    between atoms: _219  and  _221
REMARK   84  A    between atoms: _221  and  _222
REMARK   85  A    between atoms: _221  and  _224
REMARK   86  A    between atoms: _224  and  _225
REMARK   87  A    between atoms: _230  and  _232
REMARK   88  A    between atoms: _232  and  _233
REMARK   89  A    between atoms: _232  and  _235
REMARK   90  A    between atoms: _235  and  _236
REMARK   91  A    between atoms: _241  and  _243
REMARK   92  A    between atoms: _243  and  _244
REMARK   93  A    between atoms: _243  and  _246
REMARK   94  A    between atoms: _246  and  _247
REMARK   95  A    between atoms: _247  and  _248
REMARK   96  A    between atoms: _250  and  _252
REMARK   97  A    between atoms: _252  and  _253
REMARK   98  A    between atoms: _252  and  _255
REMARK   99  A    between atoms: _255  and  _256
REMARK  100  A    between atoms: _261  and  _262
REMARK  101  A    between atoms: _264  and  _266
REMARK  102  A    between atoms: _266  and  _267
REMARK  103  A    between atoms: _266  and  _269
REMARK  104  A    between atoms: _269  and  _270
REMARK  105  A    between atoms: _273  and  _275
REMARK  106  A    between atoms: _275  and  _276
REMARK  107  A    between atoms: _275  and  _278
REMARK  108  A    between atoms: _278  and  _279
REMARK  109  A    between atoms: _279  and  _496
REMARK  110  A    between atoms: _280  and  _282
REMARK  111  A    between atoms: _282  and  _283
REMARK  112  A    between atoms: _282  and  _285
REMARK  113  A    between atoms: _285  and  _286
REMARK  114  A    between atoms: _289  and  _291
REMARK  115  A    between atoms: _291  and  _292
REMARK  116  A    between atoms: _291  and  _294
REMARK  117  A    between atoms: _294  and  _295
REMARK  118  A    between atoms: _300  and  _301
REMARK  119  A    between atoms: _303  and  _305
REMARK  120  A    between atoms: _305  and  _306
REMARK  121  A    between atoms: _305  and  _308
REMARK  122  A    between atoms: _308  and  _309
REMARK  123  A    between atoms: _314  and  _315
REMARK  124  A    between atoms: _317  and  _319
REMARK  125  A    between atoms: _319  and  _320
REMARK  126  A    between atoms: _319  and  _322
REMARK  127  A    between atoms: _322  and  _323
REMARK  128  A    between atoms: _323  and  _324
REMARK  129  A    between atoms: _327  and  _329
REMARK  130  A    between atoms: _329  and  _330
REMARK  131  A    between atoms: _329  and  _332
REMARK  132  A    between atoms: _332  and  _333
REMARK  133  A    between atoms: _338  and  _339
REMARK  134  A    between atoms: _341  and  _343
REMARK  135  A    between atoms: _343  and  _344
REMARK  136  A    between atoms: _343  and  _346
REMARK  137  A    between atoms: _346  and  _347
REMARK  138  A    between atoms: _352  and  _354
REMARK  139  A    between atoms: _354  and  _355
REMARK  140  A    between atoms: _354  and  _357
REMARK  141  A    between atoms: _357  and  _358
REMARK  142  A    between atoms: _361  and  _363
REMARK  143  A    between atoms: _363  and  _364
REMARK  144  A    between atoms: _363  and  _366
REMARK  145  A    between atoms: _366  and  _367
REMARK  146  A    between atoms: _372  and  _374
REMARK  147  A    between atoms: _374  and  _375
REMARK  148  A    between atoms: _374  and  _377
REMARK  149  A    between atoms: _377  and  _378
REMARK  150  A    between atoms: _388  and  _390
REMARK  151  A    between atoms: _390  and  _391
REMARK  152  A    between atoms: _390  and  _393
REMARK  153  A    between atoms: _393  and  _394
REMARK  154  A    between atoms: _400  and  _402
REMARK  155  A    between atoms: _402  and  _403
REMARK  156  A    between atoms: _402  and  _405
REMARK  157  A    between atoms: _405  and  _406
REMARK  158  A    between atoms: _409  and  _411
REMARK  159  A    between atoms: _411  and  _412
REMARK  160  A    between atoms: _411  and  _414
REMARK  161  A    between atoms: _414  and  _415
REMARK  162  A    between atoms: _418  and  _420
REMARK  163  A    between atoms: _420  and  _421
REMARK  164  A    between atoms: _420  and  _423
REMARK  165  A    between atoms: _423  and  _424
REMARK  166  A    between atoms: _424  and  _425
REMARK  167  A    between atoms: _425  and  _426
REMARK  168  A    between atoms: _435  and  _437
REMARK  169  A    between atoms: _437  and  _438
REMARK  170  A    between atoms: _437  and  _440
REMARK  171  A    between atoms: _440  and  _441
REMARK  172  A    between atoms: _446  and  _448
REMARK  173  A    between atoms: _448  and  _449
REMARK  174  A    between atoms: _448  and  _451
REMARK  175  A    between atoms: _451  and  _452
REMARK  176  A    between atoms: _452  and  _453
REMARK  177  A    between atoms: _453  and  _454
REMARK  178  A    between atoms: _463  and  _465
REMARK  179  A    between atoms: _465  and  _466
REMARK  180  A    between atoms: _469  and  _471
REMARK  181  A    between atoms: _471  and  _472
REMARK  182  A    between atoms: _474  and  _476
REMARK  183  A    between atoms: _476  and  _477
REMARK  184  A    between atoms: _476  and  _479
REMARK  185  A    between atoms: _479  and  _480
REMARK  186  A    between atoms: _490  and  _492
REMARK  187  A    between atoms: _492  and  _493
REMARK  188  A    between atoms: _492  and  _495
REMARK  189  A    between atoms: _495  and  _496
REMARK  190  A    between atoms: _497  and  _499
REMARK  191  A    between atoms: _499  and  _500
REMARK  192  A    between atoms: _503  and  _505
REMARK  193  A    between atoms: _505  and  _506
REMARK  194  A    between atoms: _505  and  _508
REMARK  195  A    between atoms: _508  and  _509
REMARK  196  A    between atoms: _512  and  _514
REMARK  197  A    between atoms: _514  and  _515
REMARK  198  A    between atoms: _514  and  _517
REMARK  199  A    between atoms: _517  and  _518
REMARK  200  A    between atoms: _523  and  _524
REMARK  201  A    between atoms: _526  and  _528
REMARK  202  A    between atoms: _528  and  _529
REMARK  203  A    between atoms: _528  and  _531
REMARK  204  A    between atoms: _531  and  _532
REMARK  205  A    between atoms: _534  and  _536
REMARK  206  A    between atoms: _536  and  _537
REMARK  207  A    between atoms: _536  and  _539
REMARK  208  A    between atoms: _539  and  _540
REMARK  209  A    between atoms: _546  and  _548
REMARK  210  A    between atoms: _548  and  _549
REMARK  211  A    between atoms: _548  and  _551
REMARK  212  A    between atoms: _551  and  _552
REMARK  213  A    between atoms: _555  and  _557
REMARK  214  A    between atoms: _557  and  _558
REMARK  215  A    between atoms: _557  and  _560
REMARK  216  A    between atoms: _560  and  _561
REMARK  217  A    between atoms: _563  and  _565
REMARK  218  A    between atoms: _565  and  _566
REMARK  219  A    between atoms: _565  and  _568
REMARK  220  A    between atoms: _568  and  _569
REMARK  221  A    between atoms: _574  and  _576
REMARK  222  A    between atoms: _576  and  _577
REMARK  223  A    between atoms: _576  and  _579
REMARK  224  A    between atoms: _579  and  _580
REMARK  225  A    between atoms: _585  and  _587
REMARK  226  A    between atoms: _587  and  _588
REMARK  227  A    between atoms: _587  and  _590
REMARK  228  A    between atoms: _590  and  _591
REMARK  229  A    between atoms: _594  and  _596
REMARK  230  A    between atoms: _596  and  _597
REMARK  231  A    between atoms: _600  and  _602
REMARK  232  A    between atoms: _602  and  _603
REMARK  233  A    between atoms: _602  and  _605
REMARK  234  A    between atoms: _605  and  _606
REMARK  235  A    between atoms: _611  and  _612
REMARK  236  A    between atoms: _614  and  _616
REMARK  237  A    between atoms: _616  and  _617
REMARK  238  A    between atoms: _616  and  _619
REMARK  239  A    between atoms: _619  and  _620
REMARK  240  A    between atoms: _625  and  _626
REMARK  241  A    between atoms: _628  and  _630
REMARK  242  A    between atoms: _630  and  _631
REMARK  243  A    between atoms: _630  and  _633
REMARK  244  A    between atoms: _636  and  _638
REMARK  245  A    between atoms: _638  and  _639
REMARK  246  A    between atoms: _638  and  _641
REMARK  247  A    between atoms: _641  and  _642
REMARK  248  A    between atoms: _647  and  _649
REMARK  249  A    between atoms: _649  and  _650
REMARK  250  A    between atoms: _653  and  _655
REMARK  251  A    between atoms: _655  and  _656
REMARK  252  A    between atoms: _655  and  _658
REMARK  253  A    between atoms: _658  and  _659
REMARK  254  A    between atoms: _659  and  _660
REMARK  255  A    between atoms: _660  and  _661
REMARK  256  A    between atoms: _670  and  _672
REMARK  257  A    between atoms: _672  and  _673
REMARK  258  A    between atoms: _672  and  _675
REMARK  259  A    between atoms: _675  and  _676
REMARK  260  A    between atoms: _679  and  _681
REMARK  261  A    between atoms: _681  and  _682
REMARK  262  A    between atoms: _681  and  _684
REMARK  263  A    between atoms: _684  and  _685
REMARK  264  A    between atoms: _688  and  _690
REMARK  265  A    between atoms: _690  and  _691
REMARK  266  A    between atoms: _690  and  _693
REMARK  267  A    between atoms: _693  and  _694
REMARK  268  A    between atoms: _724  and  _725
REMARK  269  A    between atoms: _725  and  _731
REMARK                            x       y       z     vdW  Elec       q    Type
REMARK                         _______ _______ _______ _____ _____    ______ ____
ROOT
ATOM      1  CB  ASN A   1      -3.112  27.584  17.051  0.00  0.00    +0.110 C 
ENDROOT
BRANCH   1   2
ATOM      2  CG  ASN A   1      -3.392  26.077  16.998  0.00  0.00    +0.221 C 
ATOM      3  OD1 ASN A   1      -3.265  25.466  18.069  0.00  0.00    -0.275 OA
ATOM      4  ND2 ASN A   1      -3.745  25.542  15.825  0.00  0.00    -0.329 N 
ATOM      5 HD21 ASN A   1      -3.941  24.523  15.756  0.00  0.00    +0.145 HD
ATOM      6 HD22 ASN A   1      -3.824  26.145  14.981  0.00  0.00    +0.145 HD
ENDBRANCH   1   2
BRANCH   1   7
ATOM      7  CA  ASN A   1      -4.055  28.348  17.990  0.00  0.00    +0.142 C 
BRANCH   7   8
ATOM      8  N   ASN A   1      -4.102  27.794  19.334  0.00  0.00    -0.239 NA
ATOM      9  H   ASN A   1      -3.865  26.797  19.510  0.00  0.00    +0.142 HD
ENDBRANCH   7   8
BRANCH   7  10
ATOM     10  C   ASN A   1      -5.479  28.417  17.430  0.00  0.00    +0.225 C 
ATOM     11  O   ASN A   1      -6.280  27.498  17.621  0.00  0.00    -0.287 OA
ENDBRANCH   7  10
ENDBRANCH   1   7
TORSDOF 4
REMARK  Name = ../refined-set-2016/1b3h/1b3h_pocket.pdb
REMARK  269 active torsions:
REMARK  status: ('A' for Active; 'I' for Inactive)
REMARK    1  A    between atoms: _1  and  _3
REMARK    2  A    between atoms: _3  and  _4
REMARK    3  A    between atoms: _3  and  _6
REMARK    4  A    between atoms: _6  and  _7
REMARK    5  A    between atoms: _12  and  _14
REMARK    6  A    between atoms: _14  and  _15
REMARK    7  A    between atoms: _17  and  _19
REMARK    8  A    between atoms: _19  and  _20
REMARK    9  A    between atoms: _19  and  _22
REMARK   10  A    between atoms: _22  and  _23
REMARK   11  A    between atoms: _25  and  _27
REMARK   12  A    between atoms: _27  and  _28
REMARK   13  A    between atoms: _27  and  _30
REMARK   14  A    between atoms: _30  and  _31
REMARK   15  A    between atoms: _31  and  _32
REMARK   16  A    between atoms: _37  and  _39
REMARK   17  A    between atoms: _39  and  _40
REMARK   18  A    between atoms: _39  and  _42
REMARK   19  A    between atoms: _42  and  _43
REMARK   20  A    between atoms: _46  and  _48
REMARK   21  A    between atoms: _48  and  _49
REMARK   22  A    between atoms: _48  and  _51
REMARK   23  A    between atoms: _51  and  _52
REMARK   24  A    between atoms: _52  and  _53
REMARK   25  A    between atoms: _56  and  _58
REMARK   26  A    between atoms: _58  and  _59
REMARK   27  A    between atoms: _61  and  _63
REMARK   28  A    between atoms: _63  and  _64
REMARK   29  A    between atoms: _63  and  _66
REMARK   30  A    between atoms: _70  and  _71
REMARK   31  A    between atoms: _76  and  _78
REMARK   32  A    between atoms: _78  and  _79
REMARK   33  A    between atoms: _78  and  _81
REMARK   34  A    between atoms: _81  and  _82
REMARK   35  A    between atoms: _82  and  _83
REMARK   36  A    between atoms: _86  and  _88
REMARK   37  A    between atoms: _88  and  _89
REMARK   38  A    between atoms: _88  and  _91
REMARK   39  A    between atoms: _91  and  _92
REMARK   40  A    between atoms: _94  and  _96
REMARK   41  A    between atoms: _96  and  _97
REMARK   42  A    between atoms: _96  and  _99
REMARK   43  A    between atoms: _99  and  _100
REMARK   44  A    between atoms: _105  and  _107
REMARK   45  A    between atoms: _107  and  _108
REMARK   46  A    between atoms: _107  and  _110
REMARK   47  A    between atoms: _110  and  _111
REMARK   48  A    between atoms: _111  and  _112
REMARK   49  A    between atoms: _112  and  _113
REMARK   50  A    between atoms: _123  and  _124
REMARK   51  A    between atoms: _129  and  _131
REMARK   52  A    between atoms: _131  and  _132
REMARK   53  A    between atoms: _131  and  _134
REMARK   54  A    between atoms: _134  and  _135
REMARK   55  A    between atoms: _140  and  _141
REMARK   56  A    between atoms: _143  and  _145
REMARK   57  A    between atoms: _145  and  _146
REMARK   58  A    between atoms: _145  and  _148
REMARK   59  A    between atoms: _148  and  _149
REMARK   60  A    between atoms: _154  and  _155
REMARK   61  A    between atoms: _157  and  _159
REMARK   62  A    between atoms: _159  and  _160
REMARK   63  A    between atoms: _159  and  _162
REMARK   64  A    between atoms: _162  and  _163
REMARK   65  A    between atoms: _168  and  _169
REMARK   66  A    between atoms: _171  and  _173
REMARK   67  A    between atoms: _173  and  _174
REMARK   68  A    between atoms: _173  and  _176
REMARK   69  A    between atoms: _179  and  _181
REMARK   70  A    between atoms: _181  and  _182
REMARK   71  A    between atoms: _181  and  _184
REMARK   72  A    between atoms: _184  and  _185
REMARK   73  A    between atoms: _191  and  _192
REMARK   74  A    between atoms: _197  and  _199
REMARK   75  A    between atoms: _199  and  _200
REMARK   76  A    between atoms: _199  and  _202
REMARK   77  A    between atoms: _202  and  _203
REMARK   78  A    between atoms: _205  and  _207
REMARK   79  A    between atoms: _207  and  _208
REMARK   80  A    between atoms: _207  and  _210
REMARK   81  A    between atoms: _210  and  _211
REMARK   82  A    between atoms: _216  and  _217
REMARK   83  A    between atoms: _219  and  _221
REMARK   84  A    between atoms: _221  and  _222
REMARK   85  A    between atoms: _221  and  _224
REMARK   86  A    between atoms: _224  and  _225
REMARK   87  A    between atoms: _230  and  _232
REMARK   88  A    between atoms: _232  and  _233
REMARK   89  A    between atoms: _232  and  _235
REMARK   90  A    between atoms: _235  and  _236
REMARK   91  A    between atoms: _241  and  _243
REMARK   92  A    between atoms: _243  and  _244
REMARK   93  A    between atoms: _243  and  _246
REMARK   94  A    between atoms: _246  and  _247
REMARK   95  A    between atoms: _247  and  _248
REMARK   96  A    between atoms: _250  and  _252
REMARK   97  A    between atoms: _252  and  _253
REMARK   98  A    between atoms: _252  and  _255
REMARK   99  A    between atoms: _255  and  _256
REMARK  100  A    between atoms: _261  and  _262
REMARK  101  A    between atoms: _264  and  _266
REMARK  102  A    between atoms: _266  and  _267
REMARK  103  A    between atoms: _266  and  _269
REMARK  104  A    between atoms: _269  and  _270
REMARK  105  A    between atoms: _273  and  _275
REMARK  106  A    between atoms: _275  and  _276
REMARK  107  A    between atoms: _275  and  _278
REMARK  108  A    between atoms: _278  and  _279
REMARK  109  A    between atoms: _279  and  _496
REMARK  110  A    between atoms: _280  and  _282
REMARK  111  A    between atoms: _282  and  _283
REMARK  112  A    between atoms: _282  and  _285
REMARK  113  A    between atoms: _285  and  _286
REMARK  114  A    between atoms: _289  and  _291
REMARK  115  A    between atoms: _291  and  _292
REMARK  116  A    between atoms: _291  and  _294
REMARK  117  A    between atoms: _294  and  _295
REMARK  118  A    between atoms: _300  and  _301
REMARK  119  A    between atoms: _303  and  _305
REMARK  120  A    between atoms: _305  and  _306
REMARK  121  A    between atoms: _305  and  _308
REMARK  122  A    between atoms: _308  and  _309
REMARK  123  A    between atoms: _314  and  _315
REMARK  124  A    between atoms: _317  and  _319
REMARK  125  A    between atoms: _319  and  _320
REMARK  126  A    between atoms: _319  and  _322
REMARK  127  A    between atoms: _322  and  _323
REMARK  128  A    between atoms: _323  and  _324
REMARK  129  A    between atoms: _327  and  _329
REMARK  130  A    between atoms: _329  and  _330
REMARK  131  A    between atoms: _329  and  _332
REMARK  132  A    between atoms: _332  and  _333
REMARK  133  A    between atoms: _338  and  _339
REMARK  134  A    between atoms: _341  and  _343
REMARK  135  A    between atoms: _343  and  _344
REMARK  136  A    between atoms: _343  and  _346
REMARK  137  A    between atoms: _346  and  _347
REMARK  138  A    between atoms: _352  and  _354
REMARK  139  A    between atoms: _354  and  _355
REMARK  140  A    between atoms: _354  and  _357
REMARK  141  A    between atoms: _357  and  _358
REMARK  142  A    between atoms: _361  and  _363
REMARK  143  A    between atoms: _363  and  _364
REMARK  144  A    between atoms: _363  and  _366
REMARK  145  A    between atoms: _366  and  _367
REMARK  146  A    between atoms: _372  and  _374
REMARK  147  A    between atoms: _374  and  _375
REMARK  148  A    between atoms: _374  and  _377
REMARK  149  A    between atoms: _377  and  _378
REMARK  150  A    between atoms: _388  and  _390
REMARK  151  A    between atoms: _390  and  _391
REMARK  152  A    between atoms: _390  and  _393
REMARK  153  A    between atoms: _393  and  _394
REMARK  154  A    between atoms: _400  and  _402
REMARK  155  A    between atoms: _402  and  _403
REMARK  156  A    between atoms: _402  and  _405
REMARK  157  A    between atoms: _405  and  _406
REMARK  158  A    between atoms: _409  and  _411
REMARK  159  A    between atoms: _411  and  _412
REMARK  160  A    between atoms: _411  and  _414
REMARK  161  A    between atoms: _414  and  _415
REMARK  162  A    between atoms: _418  and  _420
REMARK  163  A    between atoms: _420  and  _421
REMARK  164  A    between atoms: _420  and  _423
REMARK  165  A    between atoms: _423  and  _424
REMARK  166  A    between atoms: _424  and  _425
REMARK  167  A    between atoms: _425  and  _426
REMARK  168  A    between atoms: _435  and  _437
REMARK  169  A    between atoms: _437  and  _438
REMARK  170  A    between atoms: _437  and  _440
REMARK  171  A    between atoms: _440  and  _441
REMARK  172  A    between atoms: _446  and  _448
REMARK  173  A    between atoms: _448  and  _449
REMARK  174  A    between atoms: _448  and  _451
REMARK  175  A    between atoms: _451  and  _452
REMARK  176  A    between atoms: _452  and  _453
REMARK  177  A    between atoms: _453  and  _454
REMARK  178  A    between atoms: _463  and  _465
REMARK  179  A    between atoms: _465  and  _466
REMARK  180  A    between atoms: _469  and  _471
REMARK  181  A    between atoms: _471  and  _472
REMARK  182  A    between atoms: _474  and  _476
REMARK  183  A    between atoms: _476  and  _477
REMARK  184  A    between atoms: _476  and  _479
REMARK  185  A    between atoms: _479  and  _480
REMARK  186  A    between atoms: _490  and  _492
REMARK  187  A    between atoms: _492  and  _493
REMARK  188  A    between atoms: _492  and  _495
REMARK  189  A    between atoms: _495  and  _496
REMARK  190  A    between atoms: _497  and  _499
REMARK  191  A    between atoms: _499  and  _500
REMARK  192  A    between atoms: _503  and  _505
REMARK  193  A    between atoms: _505  and  _506
REMARK  194  A    between atoms: _505  and  _508
REMARK  195  A    between atoms: _508  and  _509
REMARK  196  A    between atoms: _512  and  _514
REMARK  197  A    between atoms: _514  and  _515
REMARK  198  A    between atoms: _514  and  _517
REMARK  199  A    between atoms: _517  and  _518
REMARK  200  A    between atoms: _523  and  _524
REMARK  201  A    between atoms: _526  and  _528
REMARK  202  A    between atoms: _528  and  _529
REMARK  203  A    between atoms: _528  and  _531
REMARK  204  A    between atoms: _531  and  _532
REMARK  205  A    between atoms: _534  and  _536
REMARK  206  A    between atoms: _536  and  _537
REMARK  207  A    between atoms: _536  and  _539
REMARK  208  A    between atoms: _539  and  _540
REMARK  209  A    between atoms: _546  and  _548
REMARK  210  A    between atoms: _548  and  _549
REMARK  211  A    between atoms: _548  and  _551
REMARK  212  A    between atoms: _551  and  _552
REMARK  213  A    between atoms: _555  and  _557
REMARK  214  A    between atoms: _557  and  _558
REMARK  215  A    between atoms: _557  and  _560
REMARK  216  A    between atoms: _560  and  _561
REMARK  217  A    between atoms: _563  and  _565
REMARK  218  A    between atoms: _565  and  _566
REMARK  219  A    between atoms: _565  and  _568
REMARK  220  A    between atoms: _568  and  _569
REMARK  221  A    between atoms: _574  and  _576
REMARK  222  A    between atoms: _576  and  _577
REMARK  223  A    between atoms: _576  and  _579
REMARK  224  A    between atoms: _579  and  _580
REMARK  225  A    between atoms: _585  and  _587
REMARK  226  A    between atoms: _587  and  _588
REMARK  227  A    between atoms: _587  and  _590
REMARK  228  A    between atoms: _590  and  _591
REMARK  229  A    between atoms: _594  and  _596
REMARK  230  A    between atoms: _596  and  _597
REMARK  231  A    between atoms: _600  and  _602
REMARK  232  A    between atoms: _602  and  _603
REMARK  233  A    between atoms: _602  and  _605
REMARK  234  A    between atoms: _605  and  _606
REMARK  235  A    between atoms: _611  and  _612
REMARK  236  A    between atoms: _614  and  _616
REMARK  237  A    between atoms: _616  and  _617
REMARK  238  A    between atoms: _616  and  _619
REMARK  239  A    between atoms: _619  and  _620
REMARK  240  A    between atoms: _625  and  _626
REMARK  241  A    between atoms: _628  and  _630
REMARK  242  A    between atoms: _630  and  _631
REMARK  243  A    between atoms: _630  and  _633
REMARK  244  A    between atoms: _636  and  _638
REMARK  245  A    between atoms: _638  and  _639
REMARK  246  A    between atoms: _638  and  _641
REMARK  247  A    between atoms: _641  and  _642
REMARK  248  A    between atoms: _647  and  _649
REMARK  249  A    between atoms: _649  and  _650
REMARK  250  A    between atoms: _653  and  _655
REMARK  251  A    between atoms: _655  and  _656
REMARK  252  A    between atoms: _655  and  _658
REMARK  253  A    between atoms: _658  and  _659
REMARK  254  A    between atoms: _659  and  _660
REMARK  255  A    between atoms: _660  and  _661
REMARK  256  A    between atoms: _670  and  _672
REMARK  257  A    between atoms: _672  and  _673
REMARK  258  A    between atoms: _672  and  _675
REMARK  259  A    between atoms: _675  and  _676
REMARK  260  A    between atoms: _679  and  _681
REMARK  261  A    between atoms: _681  and  _682
REMARK  262  A    between atoms: _681  and  _684
REMARK  263  A    between atoms: _684  and  _685
REMARK  264  A    between atoms: _688  and  _690
REMARK  265  A    between atoms: _690  and  _691
REMARK  266  A    between atoms: _690  and  _693
REMARK  267  A    between atoms: _693  and  _694
REMARK  268  A    between atoms: _724  and  _725
REMARK  269  A    between atoms: _725  and  _731
REMARK                            x       y       z     vdW  Elec       q    Type
REMARK                         _______ _______ _______ _____ _____    ______ ____
ROOT
ATOM      1  C   LEU A   1     -11.096  22.819  18.635  0.00  0.00    +0.238 C 
ATOM      2  O   LEU A   1     -11.553  22.485  19.743  0.00  0.00    -0.274 OA
ATOM      3  N   HIS A   2      -9.985  23.571  18.569  0.00  0.00    -0.298 N 
ATOM      4  H   HIS A   2      -9.630  23.911  17.652  0.00  0.00    +0.150 HD
ENDROOT
BRANCH   1   5
ATOM      5  CA  LEU A   1     -11.755  22.419  17.324  0.00  0.00    +0.145 C 
BRANCH   5   6
ATOM      6  N   LEU A   1     -12.010  23.547  16.440  0.00  0.00    -0.238 NA
ATOM      7  H   LEU A   1     -11.595  23.557  15.486  0.00  0.00    +0.142 HD
ENDBRANCH   5   6
BRANCH   5   8
ATOM      8  CB  LEU A   1     -10.894  21.380  16.563  0.00  0.00    +0.026 C 
BRANCH   8   9
ATOM      9  CG  LEU A   1     -10.413  20.211  17.425  0.00  0.00    +0.002 C 
ATOM     10  CD2 LEU A   1     -11.620  19.455  17.968  0.00  0.00    +0.000 C 
ATOM     11  CD1 LEU A   1      -9.535  19.208  16.690  0.00  0.00    +0.000 C 
ENDBRANCH   8   9
ENDBRANCH   5   8
ENDBRANCH   1   5
BRANCH   3  12
ATOM     12  CA  HIS A   2      -9.283  23.904  19.806  0.00  0.00    +0.143 C 
BRANCH  12  13
ATOM     13  C   HIS A   2     -10.095  24.842  20.701  0.00  0.00    +0.227 C 
ATOM     14  O   HIS A   2     -10.015  24.726  21.921  0.00  0.00    -0.286 OA
ENDBRANCH  12  13
BRANCH  12  15
ATOM     15  CB  HIS A   2      -7.916  24.537  19.520  0.00  0.00    +0.075 C 
BRANCH  15  16
ATOM     16  CG  HIS A   2      -7.086  23.663  18.631  0.00  0.00    +0.082 A 
ATOM     17  ND1 HIS A   2      -7.015  22.290  18.824  0.00  0.00    -0.227 NA
ATOM     18  CE1 HIS A   2      -6.211  21.792  17.904  0.00  0.00    +0.199 A 
ATOM     19  NE2 HIS A   2      -5.808  22.767  17.099  0.00  0.00    -0.221 NA
ATOM     20  CD2 HIS A   2      -6.320  23.984  17.542  0.00  0.00    +0.115 A 
ENDBRANCH  15  16
ENDBRANCH  12  15
ENDBRANCH   3  12
TORSDOF 8
REMARK  Name = ../refined-set-2016/1b3h/1b3h_pocket.pdb
REMARK  269 active torsions:
REMARK  status: ('A' for Active; 'I' for Inactive)
REMARK    1  A    between atoms: _1  and  _3
REMARK    2  A    between atoms: _3  and  _4
REMARK    3  A    between atoms: _3  and  _6
REMARK    4  A    between atoms: _6  and  _7
REMARK    5  A    between atoms: _12  and  _14
REMARK    6  A    between atoms: _14  and  _15
REMARK    7  A    between atoms: _17  and  _19
REMARK    8  A    between atoms: _19  and  _20
REMARK    9  A    between atoms: _19  and  _22
REMARK   10  A    between atoms: _22  and  _23
REMARK   11  A    between atoms: _25  and  _27
REMARK   12  A    between atoms: _27  and  _28
REMARK   13  A    between atoms: _27  and  _30
REMARK   14  A    between atoms: _30  and  _31
REMARK   15  A    between atoms: _31  and  _32
REMARK   16  A    between atoms: _37  and  _39
REMARK   17  A    between atoms: _39  and  _40
REMARK   18  A    between atoms: _39  and  _42
REMARK   19  A    between atoms: _42  and  _43
REMARK   20  A    between atoms: _46  and  _48
REMARK   21  A    between atoms: _48  and  _49
REMARK   22  A    between atoms: _48  and  _51
REMARK   23  A    between atoms: _51  and  _52
REMARK   24  A    between atoms: _52  and  _53
REMARK   25  A    between atoms: _56  and  _58
REMARK   26  A    between atoms: _58  and  _59
REMARK   27  A    between atoms: _61  and  _63
REMARK   28  A    between atoms: _63  and  _64
REMARK   29  A    between atoms: _63  and  _66
REMARK   30  A    between atoms: _70  and  _71
REMARK   31  A    between atoms: _76  and  _78
REMARK   32  A    between atoms: _78  and  _79
REMARK   33  A    between atoms: _78  and  _81
REMARK   34  A    between atoms: _81  and  _82
REMARK   35  A    between atoms: _82  and  _83
REMARK   36  A    between atoms: _86  and  _88
REMARK   37  A    between atoms: _88  and  _89
REMARK   38  A    between atoms: _88  and  _91
REMARK   39  A    between atoms: _91  and  _92
REMARK   40  A    between atoms: _94  and  _96
REMARK   41  A    between atoms: _96  and  _97
REMARK   42  A    between atoms: _96  and  _99
REMARK   43  A    between atoms: _99  and  _100
REMARK   44  A    between atoms: _105  and  _107
REMARK   45  A    between atoms: _107  and  _108
REMARK   46  A    between atoms: _107  and  _110
REMARK   47  A    between atoms: _110  and  _111
REMARK   48  A    between atoms: _111  and  _112
REMARK   49  A    between atoms: _112  and  _113
REMARK   50  A    between atoms: _123  and  _124
REMARK   51  A    between atoms: _129  and  _131
REMARK   52  A    between atoms: _131  and  _132
REMARK   53  A    between atoms: _131  and  _134
REMARK   54  A    between atoms: _134  and  _135
REMARK   55  A    between atoms: _140  and  _141
REMARK   56  A    between atoms: _143  and  _145
REMARK   57  A    between atoms: _145  and  _146
REMARK   58  A    between atoms: _145  and  _148
REMARK   59  A    between atoms: _148  and  _149
REMARK   60  A    between atoms: _154  and  _155
REMARK   61  A    between atoms: _157  and  _159
REMARK   62  A    between atoms: _159  and  _160
REMARK   63  A    between atoms: _159  and  _162
REMARK   64  A    between atoms: _162  and  _163
REMARK   65  A    between atoms: _168  and  _169
REMARK   66  A    between atoms: _171  and  _173
REMARK   67  A    between atoms: _173  and  _174
REMARK   68  A    between atoms: _173  and  _176
REMARK   69  A    between atoms: _179  and  _181
REMARK   70  A    between atoms: _181  and  _182
REMARK   71  A    between atoms: _181  and  _184
REMARK   72  A    between atoms: _184  and  _185
REMARK   73  A    between atoms: _191  and  _192
REMARK   74  A    between atoms: _197  and  _199
REMARK   75  A    between atoms: _199  and  _200
REMARK   76  A    between atoms: _199  and  _202
REMARK   77  A    between atoms: _202  and  _203
REMARK   78  A    between atoms: _205  and  _207
REMARK   79  A    between atoms: _207  and  _208
REMARK   80  A    between atoms: _207  and  _210
REMARK   81  A    between atoms: _210  and  _211
REMARK   82  A    between atoms: _216  and  _217
REMARK   83  A    between atoms: _219  and  _221
REMARK   84  A    between atoms: _221  and  _222
REMARK   85  A    between atoms: _221  and  _224
REMARK   86  A    between atoms: _224  and  _225
REMARK   87  A    between atoms: _230  and  _232
REMARK   88  A    between atoms: _232  and  _233
REMARK   89  A    between atoms: _232  and  _235
REMARK   90  A    between atoms: _235  and  _236
REMARK   91  A    between atoms: _241  and  _243
REMARK   92  A    between atoms: _243  and  _244
REMARK   93  A    between atoms: _243  and  _246
REMARK   94  A    between atoms: _246  and  _247
REMARK   95  A    between atoms: _247  and  _248
REMARK   96  A    between atoms: _250  and  _252
REMARK   97  A    between atoms: _252  and  _253
REMARK   98  A    between atoms: _252  and  _255
REMARK   99  A    between atoms: _255  and  _256
REMARK  100  A    between atoms: _261  and  _262
REMARK  101  A    between atoms: _264  and  _266
REMARK  102  A    between atoms: _266  and  _267
REMARK  103  A    between atoms: _266  and  _269
REMARK  104  A    between atoms: _269  and  _270
REMARK  105  A    between atoms: _273  and  _275
REMARK  106  A    between atoms: _275  and  _276
REMARK  107  A    between atoms: _275  and  _278
REMARK  108  A    between atoms: _278  and  _279
REMARK  109  A    between atoms: _279  and  _496
REMARK  110  A    between atoms: _280  and  _282
REMARK  111  A    between atoms: _282  and  _283
REMARK  112  A    between atoms: _282  and  _285
REMARK  113  A    between atoms: _285  and  _286
REMARK  114  A    between atoms: _289  and  _291
REMARK  115  A    between atoms: _291  and  _292
REMARK  116  A    between atoms: _291  and  _294
REMARK  117  A    between atoms: _294  and  _295
REMARK  118  A    between atoms: _300  and  _301
REMARK  119  A    between atoms: _303  and  _305
REMARK  120  A    between atoms: _305  and  _306
REMARK  121  A    between atoms: _305  and  _308
REMARK  122  A    between atoms: _308  and  _309
REMARK  123  A    between atoms: _314  and  _315
REMARK  124  A    between atoms: _317  and  _319
REMARK  125  A    between atoms: _319  and  _320
REMARK  126  A    between atoms: _319  and  _322
REMARK  127  A    between atoms: _322  and  _323
REMARK  128  A    between atoms: _323  and  _324
REMARK  129  A    between atoms: _327  and  _329
REMARK  130  A    between atoms: _329  and  _330
REMARK  131  A    between atoms: _329  and  _332
REMARK  132  A    between atoms: _332  and  _333
REMARK  133  A    between atoms: _338  and  _339
REMARK  134  A    between atoms: _341  and  _343
REMARK  135  A    between atoms: _343  and  _344
REMARK  136  A    between atoms: _343  and  _346
REMARK  137  A    between atoms: _346  and  _347
REMARK  138  A    between atoms: _352  and  _354
REMARK  139  A    between atoms: _354  and  _355
REMARK  140  A    between atoms: _354  and  _357
REMARK  141  A    between atoms: _357  and  _358
REMARK  142  A    between atoms: _361  and  _363
REMARK  143  A    between atoms: _363  and  _364
REMARK  144  A    between atoms: _363  and  _366
REMARK  145  A    between atoms: _366  and  _367
REMARK  146  A    between atoms: _372  and  _374
REMARK  147  A    between atoms: _374  and  _375
REMARK  148  A    between atoms: _374  and  _377
REMARK  149  A    between atoms: _377  and  _378
REMARK  150  A    between atoms: _388  and  _390
REMARK  151  A    between atoms: _390  and  _391
REMARK  152  A    between atoms: _390  and  _393
REMARK  153  A    between atoms: _393  and  _394
REMARK  154  A    between atoms: _400  and  _402
REMARK  155  A    between atoms: _402  and  _403
REMARK  156  A    between atoms: _402  and  _405
REMARK  157  A    between atoms: _405  and  _406
REMARK  158  A    between atoms: _409  and  _411
REMARK  159  A    between atoms: _411  and  _412
REMARK  160  A    between atoms: _411  and  _414
REMARK  161  A    between atoms: _414  and  _415
REMARK  162  A    between atoms: _418  and  _420
REMARK  163  A    between atoms: _420  and  _421
REMARK  164  A    between atoms: _420  and  _423
REMARK  165  A    between atoms: _423  and  _424
REMARK  166  A    between atoms: _424  and  _425
REMARK  167  A    between atoms: _425  and  _426
REMARK  168  A    between atoms: _435  and  _437
REMARK  169  A    between atoms: _437  and  _438
REMARK  170  A    between atoms: _437  and  _440
REMARK  171  A    between atoms: _440  and  _441
REMARK  172  A    between atoms: _446  and  _448
REMARK  173  A    between atoms: _448  and  _449
REMARK  174  A    between atoms: _448  and  _451
REMARK  175  A    between atoms: _451  and  _452
REMARK  176  A    between atoms: _452  and  _453
REMARK  177  A    between atoms: _453  and  _454
REMARK  178  A    between atoms: _463  and  _465
REMARK  179  A    between atoms: _465  and  _466
REMARK  180  A    between atoms: _469  and  _471
REMARK  181  A    between atoms: _471  and  _472
REMARK  182  A    between atoms: _474  and  _476
REMARK  183  A    between atoms: _476  and  _477
REMARK  184  A    between atoms: _476  and  _479
REMARK  185  A    between atoms: _479  and  _480
REMARK  186  A    between atoms: _490  and  _492
REMARK  187  A    between atoms: _492  and  _493
REMARK  188  A    between atoms: _492  and  _495
REMARK  189  A    between atoms: _495  and  _496
REMARK  190  A    between atoms: _497  and  _499
REMARK  191  A    between atoms: _499  and  _500
REMARK  192  A    between atoms: _503  and  _505
REMARK  193  A    between atoms: _505  and  _506
REMARK  194  A    between atoms: _505  and  _508
REMARK  195  A    between atoms: _508  and  _509
REMARK  196  A    between atoms: _512  and  _514
REMARK  197  A    between atoms: _514  and  _515
REMARK  198  A    between atoms: _514  and  _517
REMARK  199  A    between atoms: _517  and  _518
REMARK  200  A    between atoms: _523  and  _524
REMARK  201  A    between atoms: _526  and  _528
REMARK  202  A    between atoms: _528  and  _529
REMARK  203  A    between atoms: _528  and  _531
REMARK  204  A    between atoms: _531  and  _532
REMARK  205  A    between atoms: _534  and  _536
REMARK  206  A    between atoms: _536  and  _537
REMARK  207  A    between atoms: _536  and  _539
REMARK  208  A    between atoms: _539  and  _540
REMARK  209  A    between atoms: _546  and  _548
REMARK  210  A    between atoms: _548  and  _549
REMARK  211  A    between atoms: _548  and  _551
REMARK  212  A    between atoms: _551  and  _552
REMARK  213  A    between atoms: _555  and  _557
REMARK  214  A    between atoms: _557  and  _558
REMARK  215  A    between atoms: _557  and  _560
REMARK  216  A    between atoms: _560  and  _561
REMARK  217  A    between atoms: _563  and  _565
REMARK  218  A    between atoms: _565  and  _566
REMARK  219  A    between atoms: _565  and  _568
REMARK  220  A    between atoms: _568  and  _569
REMARK  221  A    between atoms: _574  and  _576
REMARK  222  A    between atoms: _576  and  _577
REMARK  223  A    between atoms: _576  and  _579
REMARK  224  A    between atoms: _579  and  _580
REMARK  225  A    between atoms: _585  and  _587
REMARK  226  A    between atoms: _587  and  _588
REMARK  227  A    between atoms: _587  and  _590
REMARK  228  A    between atoms: _590  and  _591
REMARK  229  A    between atoms: _594  and  _596
REMARK  230  A    between atoms: _596  and  _597
REMARK  231  A    between atoms: _600  and  _602
REMARK  232  A    between atoms: _602  and  _603
REMARK  233  A    between atoms: _602  and  _605
REMARK  234  A    between atoms: _605  and  _606
REMARK  235  A    between atoms: _611  and  _612
REMARK  236  A    between atoms: _614  and  _616
REMARK  237  A    between atoms: _616  and  _617
REMARK  238  A    between atoms: _616  and  _619
REMARK  239  A    between atoms: _619  and  _620
REMARK  240  A    between atoms: _625  and  _626
REMARK  241  A    between atoms: _628  and  _630
REMARK  242  A    between atoms: _630  and  _631
REMARK  243  A    between atoms: _630  and  _633
REMARK  244  A    between atoms: _636  and  _638
REMARK  245  A    between atoms: _638  and  _639
REMARK  246  A    between atoms: _638  and  _641
REMARK  247  A    between atoms: _641  and  _642
REMARK  248  A    between atoms: _647  and  _649
REMARK  249  A    between atoms: _649  and  _650
REMARK  250  A    between atoms: _653  and  _655
REMARK  251  A    between atoms: _655  and  _656
REMARK  252  A    between atoms: _655  and  _658
REMARK  253  A    between atoms: _658  and  _659
REMARK  254  A    between atoms: _659  and  _660
REMARK  255  A    between atoms: _660  and  _661
REMARK  256  A    between atoms: _670  and  _672
REMARK  257  A    between atoms: _672  and  _673
REMARK  258  A    between atoms: _672  and  _675
REMARK  259  A    between atoms: _675  and  _676
REMARK  260  A    between atoms: _679  and  _681
REMARK  261  A    between atoms: _681  and  _682
REMARK  262  A    between atoms: _681  and  _684
REMARK  263  A    between atoms: _684  and  _685
REMARK  264  A    between atoms: _688  and  _690
REMARK  265  A    between atoms: _690  and  _691
REMARK  266  A    between atoms: _690  and  _693
REMARK  267  A    between atoms: _693  and  _694
REMARK  268  A    between atoms: _724  and  _725
REMARK  269  A    between atoms: _725  and  _731
REMARK                            x       y       z     vdW  Elec       q    Type
REMARK                         _______ _______ _______ _____ _____    ______ ____
ROOT
ATOM      1  CG  TRP A   1       0.489  27.415  12.941  0.00  0.00    -0.002 A 
ATOM      2  CD2 TRP A   1       0.520  26.271  13.780  0.00  0.00    +0.013 A 
ATOM      3  CE3 TRP A   1      -0.170  25.906  14.950  0.00  0.00    +0.001 A 
ATOM      4  CZ3 TRP A   1       0.123  24.714  15.573  0.00  0.00    +0.000 A 
ATOM      5  CH2 TRP A   1       1.111  23.839  15.023  0.00  0.00    +0.001 A 
ATOM      6  CZ2 TRP A   1       1.801  24.171  13.883  0.00  0.00    +0.017 A 
ATOM      7  CE2 TRP A   1       1.508  25.398  13.298  0.00  0.00    +0.056 A 
ATOM      8  NE1 TRP A   1       2.049  25.988  12.181  0.00  0.00    -0.352 N 
ATOM      9  HE1 TRP A   1       2.801  25.578  11.591  0.00  0.00    +0.166 HD
ATOM     10  CD1 TRP A   1       1.447  27.199  11.964  0.00  0.00    +0.068 A 
ENDROOT
BRANCH   1  11
ATOM     11  CB  TRP A   1      -0.374  28.629  12.993  0.00  0.00    +0.053 C 
BRANCH  11  12
ATOM     12  CA  TRP A   1      -0.309  29.494  14.266  0.00  0.00    +0.137 C 
BRANCH  12  13
ATOM     13  N   TRP A   1      -1.336  30.514  14.185  0.00  0.00    -0.239 NA
ATOM     14  H   TRP A   1      -2.108  30.378  13.501  0.00  0.00    +0.142 HD
ENDBRANCH  12  13
BRANCH  12  15
ATOM     15  C   TRP A   1       1.104  29.975  14.419  0.00  0.00    +0.224 C 
ATOM     16  O   TRP A   1       1.778  29.662  15.397  0.00  0.00    -0.287 OA
ENDBRANCH  12  15
ENDBRANCH  11  12
ENDBRANCH   1  11
TORSDOF 4
REMARK  Name = ../refined-set-2016/1b3h/1b3h_pocket.pdb
REMARK  269 active torsions:
REMARK  status: ('A' for Active; 'I' for Inactive)
REMARK    1  A    between atoms: _1  and  _3
REMARK    2  A    between atoms: _3  and  _4
REMARK    3  A    between atoms: _3  and  _6
REMARK    4  A    between atoms: _6  and  _7
REMARK    5  A    between atoms: _12  and  _14
REMARK    6  A    between atoms: _14  and  _15
REMARK    7  A    between atoms: _17  and  _19
REMARK    8  A    between atoms: _19  and  _20
REMARK    9  A    between atoms: _19  and  _22
REMARK   10  A    between atoms: _22  and  _23
REMARK   11  A    between atoms: _25  and  _27
REMARK   12  A    between atoms: _27  and  _28
REMARK   13  A    between atoms: _27  and  _30
REMARK   14  A    between atoms: _30  and  _31
REMARK   15  A    between atoms: _31  and  _32
REMARK   16  A    between atoms: _37  and  _39
REMARK   17  A    between atoms: _39  and  _40
REMARK   18  A    between atoms: _39  and  _42
REMARK   19  A    between atoms: _42  and  _43
REMARK   20  A    between atoms: _46  and  _48
REMARK   21  A    between atoms: _48  and  _49
REMARK   22  A    between atoms: _48  and  _51
REMARK   23  A    between atoms: _51  and  _52
REMARK   24  A    between atoms: _52  and  _53
REMARK   25  A    between atoms: _56  and  _58
REMARK   26  A    between atoms: _58  and  _59
REMARK   27  A    between atoms: _61  and  _63
REMARK   28  A    between atoms: _63  and  _64
REMARK   29  A    between atoms: _63  and  _66
REMARK   30  A    between atoms: _70  and  _71
REMARK   31  A    between atoms: _76  and  _78
REMARK   32  A    between atoms: _78  and  _79
REMARK   33  A    between atoms: _78  and  _81
REMARK   34  A    between atoms: _81  and  _82
REMARK   35  A    between atoms: _82  and  _83
REMARK   36  A    between atoms: _86  and  _88
REMARK   37  A    between atoms: _88  and  _89
REMARK   38  A    between atoms: _88  and  _91
REMARK   39  A    between atoms: _91  and  _92
REMARK   40  A    between atoms: _94  and  _96
REMARK   41  A    between atoms: _96  and  _97
REMARK   42  A    between atoms: _96  and  _99
REMARK   43  A    between atoms: _99  and  _100
REMARK   44  A    between atoms: _105  and  _107
REMARK   45  A    between atoms: _107  and  _108
REMARK   46  A    between atoms: _107  and  _110
REMARK   47  A    between atoms: _110  and  _111
REMARK   48  A    between atoms: _111  and  _112
REMARK   49  A    between atoms: _112  and  _113
REMARK   50  A    between atoms: _123  and  _124
REMARK   51  A    between atoms: _129  and  _131
REMARK   52  A    between atoms: _131  and  _132
REMARK   53  A    between atoms: _131  and  _134
REMARK   54  A    between atoms: _134  and  _135
REMARK   55  A    between atoms: _140  and  _141
REMARK   56  A    between atoms: _143  and  _145
REMARK   57  A    between atoms: _145  and  _146
REMARK   58  A    between atoms: _145  and  _148
REMARK   59  A    between atoms: _148  and  _149
REMARK   60  A    between atoms: _154  and  _155
REMARK   61  A    between atoms: _157  and  _159
REMARK   62  A    between atoms: _159  and  _160
REMARK   63  A    between atoms: _159  and  _162
REMARK   64  A    between atoms: _162  and  _163
REMARK   65  A    between atoms: _168  and  _169
REMARK   66  A    between atoms: _171  and  _173
REMARK   67  A    between atoms: _173  and  _174
REMARK   68  A    between atoms: _173  and  _176
REMARK   69  A    between atoms: _179  and  _181
REMARK   70  A    between atoms: _181  and  _182
REMARK   71  A    between atoms: _181  and  _184
REMARK   72  A    between atoms: _184  and  _185
REMARK   73  A    between atoms: _191  and  _192
REMARK   74  A    between atoms: _197  and  _199
REMARK   75  A    between atoms: _199  and  _200
REMARK   76  A    between atoms: _199  and  _202
REMARK   77  A    between atoms: _202  and  _203
REMARK   78  A    between atoms: _205  and  _207
REMARK   79  A    between atoms: _207  and  _208
REMARK   80  A    between atoms: _207  and  _210
REMARK   81  A    between atoms: _210  and  _211
REMARK   82  A    between atoms: _216  and  _217
REMARK   83  A    between atoms: _219  and  _221
REMARK   84  A    between atoms: _221  and  _222
REMARK   85  A    between atoms: _221  and  _224
REMARK   86  A    between atoms: _224  and  _225
REMARK   87  A    between atoms: _230  and  _232
REMARK   88  A    between atoms: _232  and  _233
REMARK   89  A    between atoms: _232  and  _235
REMARK   90  A    between atoms: _235  and  _236
REMARK   91  A    between atoms: _241  and  _243
REMARK   92  A    between atoms: _243  and  _244
REMARK   93  A    between atoms: _243  and  _246
REMARK   94  A    between atoms: _246  and  _247
REMARK   95  A    between atoms: _247  and  _248
REMARK   96  A    between atoms: _250  and  _252
REMARK   97  A    between atoms: _252  and  _253
REMARK   98  A    between atoms: _252  and  _255
REMARK   99  A    between atoms: _255  and  _256
REMARK  100  A    between atoms: _261  and  _262
REMARK  101  A    between atoms: _264  and  _266
REMARK  102  A    between atoms: _266  and  _267
REMARK  103  A    between atoms: _266  and  _269
REMARK  104  A    between atoms: _269  and  _270
REMARK  105  A    between atoms: _273  and  _275
REMARK  106  A    between atoms: _275  and  _276
REMARK  107  A    between atoms: _275  and  _278
REMARK  108  A    between atoms: _278  and  _279
REMARK  109  A    between atoms: _279  and  _496
REMARK  110  A    between atoms: _280  and  _282
REMARK  111  A    between atoms: _282  and  _283
REMARK  112  A    between atoms: _282  and  _285
REMARK  113  A    between atoms: _285  and  _286
REMARK  114  A    between atoms: _289  and  _291
REMARK  115  A    between atoms: _291  and  _292
REMARK  116  A    between atoms: _291  and  _294
REMARK  117  A    between atoms: _294  and  _295
REMARK  118  A    between atoms: _300  and  _301
REMARK  119  A    between atoms: _303  and  _305
REMARK  120  A    between atoms: _305  and  _306
REMARK  121  A    between atoms: _305  and  _308
REMARK  122  A    between atoms: _308  and  _309
REMARK  123  A    between atoms: _314  and  _315
REMARK  124  A    between atoms: _317  and  _319
REMARK  125  A    between atoms: _319  and  _320
REMARK  126  A    between atoms: _319  and  _322
REMARK  127  A    between atoms: _322  and  _323
REMARK  128  A    between atoms: _323  and  _324
REMARK  129  A    between atoms: _327  and  _329
REMARK  130  A    between atoms: _329  and  _330
REMARK  131  A    between atoms: _329  and  _332
REMARK  132  A    between atoms: _332  and  _333
REMARK  133  A    between atoms: _338  and  _339
REMARK  134  A    between atoms: _341  and  _343
REMARK  135  A    between atoms: _343  and  _344
REMARK  136  A    between atoms: _343  and  _346
REMARK  137  A    between atoms: _346  and  _347
REMARK  138  A    between atoms: _352  and  _354
REMARK  139  A    between atoms: _354  and  _355
REMARK  140  A    between atoms: _354  and  _357
REMARK  141  A    between atoms: _357  and  _358
REMARK  142  A    between atoms: _361  and  _363
REMARK  143  A    between atoms: _363  and  _364
REMARK  144  A    between atoms: _363  and  _366
REMARK  145  A    between atoms: _366  and  _367
REMARK  146  A    between atoms: _372  and  _374
REMARK  147  A    between atoms: _374  and  _375
REMARK  148  A    between atoms: _374  and  _377
REMARK  149  A    between atoms: _377  and  _378
REMARK  150  A    between atoms: _388  and  _390
REMARK  151  A    between atoms: _390  and  _391
REMARK  152  A    between atoms: _390  and  _393
REMARK  153  A    between atoms: _393  and  _394
REMARK  154  A    between atoms: _400  and  _402
REMARK  155  A    between atoms: _402  and  _403
REMARK  156  A    between atoms: _402  and  _405
REMARK  157  A    between atoms: _405  and  _406
REMARK  158  A    between atoms: _409  and  _411
REMARK  159  A    between atoms: _411  and  _412
REMARK  160  A    between atoms: _411  and  _414
REMARK  161  A    between atoms: _414  and  _415
REMARK  162  A    between atoms: _418  and  _420
REMARK  163  A    between atoms: _420  and  _421
REMARK  164  A    between atoms: _420  and  _423
REMARK  165  A    between atoms: _423  and  _424
REMARK  166  A    between atoms: _424  and  _425
REMARK  167  A    between atoms: _425  and  _426
REMARK  168  A    between atoms: _435  and  _437
REMARK  169  A    between atoms: _437  and  _438
REMARK  170  A    between atoms: _437  and  _440
REMARK  171  A    between atoms: _440  and  _441
REMARK  172  A    between atoms: _446  and  _448
REMARK  173  A    between atoms: _448  and  _449
REMARK  174  A    between atoms: _448  and  _451
REMARK  175  A    between atoms: _451  and  _452
REMARK  176  A    between atoms: _452  and  _453
REMARK  177  A    between atoms: _453  and  _454
REMARK  178  A    between atoms: _463  and  _465
REMARK  179  A    between atoms: _465  and  _466
REMARK  180  A    between atoms: _469  and  _471
REMARK  181  A    between atoms: _471  and  _472
REMARK  182  A    between atoms: _474  and  _476
REMARK  183  A    between atoms: _476  and  _477
REMARK  184  A    between atoms: _476  and  _479
REMARK  185  A    between atoms: _479  and  _480
REMARK  186  A    between atoms: _490  and  _492
REMARK  187  A    between atoms: _492  and  _493
REMARK  188  A    between atoms: _492  and  _495
REMARK  189  A    between atoms: _495  and  _496
REMARK  190  A    between atoms: _497  and  _499
REMARK  191  A    between atoms: _499  and  _500
REMARK  192  A    between atoms: _503  and  _505
REMARK  193  A    between atoms: _505  and  _506
REMARK  194  A    between atoms: _505  and  _508
REMARK  195  A    between atoms: _508  and  _509
REMARK  196  A    between atoms: _512  and  _514
REMARK  197  A    between atoms: _514  and  _515
REMARK  198  A    between atoms: _514  and  _517
REMARK  199  A    between atoms: _517  and  _518
REMARK  200  A    between atoms: _523  and  _524
REMARK  201  A    between atoms: _526  and  _528
REMARK  202  A    between atoms: _528  and  _529
REMARK  203  A    between atoms: _528  and  _531
REMARK  204  A    between atoms: _531  and  _532
REMARK  205  A    between atoms: _534  and  _536
REMARK  206  A    between atoms: _536  and  _537
REMARK  207  A    between atoms: _536  and  _539
REMARK  208  A    between atoms: _539  and  _540
REMARK  209  A    between atoms: _546  and  _548
REMARK  210  A    between atoms: _548  and  _549
REMARK  211  A    between atoms: _548  and  _551
REMARK  212  A    between atoms: _551  and  _552
REMARK  213  A    between atoms: _555  and  _557
REMARK  214  A    between atoms: _557  and  _558
REMARK  215  A    between atoms: _557  and  _560
REMARK  216  A    between atoms: _560  and  _561
REMARK  217  A    between atoms: _563  and  _565
REMARK  218  A    between atoms: _565  and  _566
REMARK  219  A    between atoms: _565  and  _568
REMARK  220  A    between atoms: _568  and  _569
REMARK  221  A    between atoms: _574  and  _576
REMARK  222  A    between atoms: _576  and  _577
REMARK  223  A    between atoms: _576  and  _579
REMARK  224  A    between atoms: _579  and  _580
REMARK  225  A    between atoms: _585  and  _587
REMARK  226  A    between atoms: _587  and  _588
REMARK  227  A    between atoms: _587  and  _590
REMARK  228  A    between atoms: _590  and  _591
REMARK  229  A    between atoms: _594  and  _596
REMARK  230  A    between atoms: _596  and  _597
REMARK  231  A    between atoms: _600  and  _602
REMARK  232  A    between atoms: _602  and  _603
REMARK  233  A    between atoms: _602  and  _605
REMARK  234  A    between atoms: _605  and  _606
REMARK  235  A    between atoms: _611  and  _612
REMARK  236  A    between atoms: _614  and  _616
REMARK  237  A    between atoms: _616  and  _617
REMARK  238  A    between atoms: _616  and  _619
REMARK  239  A    between atoms: _619  and  _620
REMARK  240  A    between atoms: _625  and  _626
REMARK  241  A    between atoms: _628  and  _630
REMARK  242  A    between atoms: _630  and  _631
REMARK  243  A    between atoms: _630  and  _633
REMARK  244  A    between atoms: _636  and  _638
REMARK  245  A    between atoms: _638  and  _639
REMARK  246  A    between atoms: _638  and  _641
REMARK  247  A    between atoms: _641  and  _642
REMARK  248  A    between atoms: _647  and  _649
REMARK  249  A    between atoms: _649  and  _650
REMARK  250  A    between atoms: _653  and  _655
REMARK  251  A    between atoms: _655  and  _656
REMARK  252  A    between atoms: _655  and  _658
REMARK  253  A    between atoms: _658  and  _659
REMARK  254  A    between atoms: _659  and  _660
REMARK  255  A    between atoms: _660  and  _661
REMARK  256  A    between atoms: _670  and  _672
REMARK  257  A    between atoms: _672  and  _673
REMARK  258  A    between atoms: _672  and  _675
REMARK  259  A    between atoms: _675  and  _676
REMARK  260  A    between atoms: _679  and  _681
REMARK  261  A    between atoms: _681  and  _682
REMARK  262  A    between atoms: _681  and  _684
REMARK  263  A    between atoms: _684  and  _685
REMARK  264  A    between atoms: _688  and  _690
REMARK  265  A    between atoms: _690  and  _691
REMARK  266  A    between atoms: _690  and  _693
REMARK  267  A    between atoms: _693  and  _694
REMARK  268  A    between atoms: _724  and  _725
REMARK  269  A    between atoms: _725  and  _731
REMARK                            x       y       z     vdW  Elec       q    Type
REMARK                         _______ _______ _______ _____ _____    ______ ____
ROOT
ATOM      1  CA  LEU A   2       4.556  28.880  18.169  0.00  0.00    +0.149 C 
ENDROOT
BRANCH   1   4
ATOM      2  C   PHE A   1       2.639  30.085  19.009  0.00  0.00    +0.239 C 
ATOM      3  O   PHE A   1       2.984  29.878  20.168  0.00  0.00    -0.274 OA
ATOM      4  N   LEU A   2       3.306  29.597  17.936  0.00  0.00    -0.297 N 
ATOM      5  H   LEU A   2       2.938  29.729  16.972  0.00  0.00    +0.150 HD
BRANCH   2   6
ATOM      6  CA  PHE A   1       1.337  30.832  18.786  0.00  0.00    +0.149 C 
BRANCH   6   7
ATOM      7  N   PHE A   1       1.501  31.850  17.759  0.00  0.00    -0.238 NA
ATOM      8  H   PHE A   1       0.804  31.883  16.988  0.00  0.00    +0.142 HD
ENDBRANCH   6   7
BRANCH   6   9
ATOM      9  CB  PHE A   1       0.296  29.806  18.306  0.00  0.00    +0.053 C 
BRANCH   9  10
ATOM     10  CG  PHE A   1      -0.029  28.639  19.163  0.00  0.00    -0.020 A 
ATOM     11  CD2 PHE A   1      -0.486  28.804  20.457  0.00  0.00    -0.004 A 
ATOM     12  CE2 PHE A   1      -0.835  27.713  21.245  0.00  0.00    -0.000 A 
ATOM     13  CZ  PHE A   1      -0.724  26.439  20.728  0.00  0.00    -0.000 A 
ATOM     14  CE1 PHE A   1      -0.265  26.237  19.413  0.00  0.00    -0.000 A 
ATOM     15  CD1 PHE A   1       0.045  27.347  18.652  0.00  0.00    -0.004 A 
ENDBRANCH   9  10
ENDBRANCH   6   9
ENDBRANCH   2   6
ENDBRANCH   1   4
BRANCH   1  16
ATOM     16  C   LEU A   2       5.651  29.762  18.787  0.00  0.00    +0.241 C 
ATOM     17  O   LEU A   2       6.418  29.264  19.644  0.00  0.00    -0.273 OA
ATOM     18  N   ASP A   3       5.742  31.019  18.344  0.00  0.00    -0.298 N 
ATOM     19  H   ASP A   3       5.103  31.362  17.598  0.00  0.00    +0.150 HD
BRANCH  18  20
ATOM     20  CA  ASP A   3       6.761  31.916  18.926  0.00  0.00    +0.148 C 
BRANCH  20  21
ATOM     21  C   ASP A   3       6.524  32.147  20.413  0.00  0.00    +0.227 C 
ATOM     22  O   ASP A   3       7.436  32.182  21.236  0.00  0.00    -0.286 OA
ENDBRANCH  20  21
BRANCH  20  23
ATOM     23  CB  ASP A   3       6.716  33.270  18.209  0.00  0.00    +0.142 C 
BRANCH  23  24
ATOM     24  CG  ASP A   3       7.574  34.336  18.849  0.00  0.00    +0.367 C 
ATOM     25  OD2 ASP A   3       7.005  35.268  19.454  0.00  0.00    -0.246 OA
ATOM     26  OD1 ASP A   3       8.809  34.192  18.774  0.00  0.00    -0.246 OA
ENDBRANCH  23  24
ENDBRANCH  20  23
ENDBRANCH  18  20
ENDBRANCH   1  16
BRANCH   1  27
ATOM     27  CB  LEU A   2       5.097  28.201  16.903  0.00  0.00    +0.029 C 
BRANCH  27  28
ATOM     28  CG  LEU A   2       4.113  27.228  16.227  0.00  0.00    +0.002 C 
ATOM     29  CD2 LEU A   2       3.258  26.398  17.185  0.00  0.00    +0.000 C 
ATOM     30  CD1 LEU A   2       4.838  26.343  15.240  0.00  0.00    +0.000 C 
ENDBRANCH  27  28
ENDBRANCH   1  27
TORSDOF 12
REMARK  Name = ../refined-set-2016/1b3h/1b3h_pocket.pdb
REMARK  269 active torsions:
REMARK  status: ('A' for Active; 'I' for Inactive)
REMARK    1  A    between atoms: _1  and  _3
REMARK    2  A    between atoms: _3  and  _4
REMARK    3  A    between atoms: _3  and  _6
REMARK    4  A    between atoms: _6  and  _7
REMARK    5  A    between atoms: _12  and  _14
REMARK    6  A    between atoms: _14  and  _15
REMARK    7  A    between atoms: _17  and  _19
REMARK    8  A    between atoms: _19  and  _20
REMARK    9  A    between atoms: _19  and  _22
REMARK   10  A    between atoms: _22  and  _23
REMARK   11  A    between atoms: _25  and  _27
REMARK   12  A    between atoms: _27  and  _28
REMARK   13  A    between atoms: _27  and  _30
REMARK   14  A    between atoms: _30  and  _31
REMARK   15  A    between atoms: _31  and  _32
REMARK   16  A    between atoms: _37  and  _39
REMARK   17  A    between atoms: _39  and  _40
REMARK   18  A    between atoms: _39  and  _42
REMARK   19  A    between atoms: _42  and  _43
REMARK   20  A    between atoms: _46  and  _48
REMARK   21  A    between atoms: _48  and  _49
REMARK   22  A    between atoms: _48  and  _51
REMARK   23  A    between atoms: _51  and  _52
REMARK   24  A    between atoms: _52  and  _53
REMARK   25  A    between atoms: _56  and  _58
REMARK   26  A    between atoms: _58  and  _59
REMARK   27  A    between atoms: _61  and  _63
REMARK   28  A    between atoms: _63  and  _64
REMARK   29  A    between atoms: _63  and  _66
REMARK   30  A    between atoms: _70  and  _71
REMARK   31  A    between atoms: _76  and  _78
REMARK   32  A    between atoms: _78  and  _79
REMARK   33  A    between atoms: _78  and  _81
REMARK   34  A    between atoms: _81  and  _82
REMARK   35  A    between atoms: _82  and  _83
REMARK   36  A    between atoms: _86  and  _88
REMARK   37  A    between atoms: _88  and  _89
REMARK   38  A    between atoms: _88  and  _91
REMARK   39  A    between atoms: _91  and  _92
REMARK   40  A    between atoms: _94  and  _96
REMARK   41  A    between atoms: _96  and  _97
REMARK   42  A    between atoms: _96  and  _99
REMARK   43  A    between atoms: _99  and  _100
REMARK   44  A    between atoms: _105  and  _107
REMARK   45  A    between atoms: _107  and  _108
REMARK   46  A    between atoms: _107  and  _110
REMARK   47  A    between atoms: _110  and  _111
REMARK   48  A    between atoms: _111  and  _112
REMARK   49  A    between atoms: _112  and  _113
REMARK   50  A    between atoms: _123  and  _124
REMARK   51  A    between atoms: _129  and  _131
REMARK   52  A    between atoms: _131  and  _132
REMARK   53  A    between atoms: _131  and  _134
REMARK   54  A    between atoms: _134  and  _135
REMARK   55  A    between atoms: _140  and  _141
REMARK   56  A    between atoms: _143  and  _145
REMARK   57  A    between atoms: _145  and  _146
REMARK   58  A    between atoms: _145  and  _148
REMARK   59  A    between atoms: _148  and  _149
REMARK   60  A    between atoms: _154  and  _155
REMARK   61  A    between atoms: _157  and  _159
REMARK   62  A    between atoms: _159  and  _160
REMARK   63  A    between atoms: _159  and  _162
REMARK   64  A    between atoms: _162  and  _163
REMARK   65  A    between atoms: _168  and  _169
REMARK   66  A    between atoms: _171  and  _173
REMARK   67  A    between atoms: _173  and  _174
REMARK   68  A    between atoms: _173  and  _176
REMARK   69  A    between atoms: _179  and  _181
REMARK   70  A    between atoms: _181  and  _182
REMARK   71  A    between atoms: _181  and  _184
REMARK   72  A    between atoms: _184  and  _185
REMARK   73  A    between atoms: _191  and  _192
REMARK   74  A    between atoms: _197  and  _199
REMARK   75  A    between atoms: _199  and  _200
REMARK   76  A    between atoms: _199  and  _202
REMARK   77  A    between atoms: _202  and  _203
REMARK   78  A    between atoms: _205  and  _207
REMARK   79  A    between atoms: _207  and  _208
REMARK   80  A    between atoms: _207  and  _210
REMARK   81  A    between atoms: _210  and  _211
REMARK   82  A    between atoms: _216  and  _217
REMARK   83  A    between atoms: _219  and  _221
REMARK   84  A    between atoms: _221  and  _222
REMARK   85  A    between atoms: _221  and  _224
REMARK   86  A    between atoms: _224  and  _225
REMARK   87  A    between atoms: _230  and  _232
REMARK   88  A    between atoms: _232  and  _233
REMARK   89  A    between atoms: _232  and  _235
REMARK   90  A    between atoms: _235  and  _236
REMARK   91  A    between atoms: _241  and  _243
REMARK   92  A    between atoms: _243  and  _244
REMARK   93  A    between atoms: _243  and  _246
REMARK   94  A    between atoms: _246  and  _247
REMARK   95  A    between atoms: _247  and  _248
REMARK   96  A    between atoms: _250  and  _252
REMARK   97  A    between atoms: _252  and  _253
REMARK   98  A    between atoms: _252  and  _255
REMARK   99  A    between atoms: _255  and  _256
REMARK  100  A    between atoms: _261  and  _262
REMARK  101  A    between atoms: _264  and  _266
REMARK  102  A    between atoms: _266  and  _267
REMARK  103  A    between atoms: _266  and  _269
REMARK  104  A    between atoms: _269  and  _270
REMARK  105  A    between atoms: _273  and  _275
REMARK  106  A    between atoms: _275  and  _276
REMARK  107  A    between atoms: _275  and  _278
REMARK  108  A    between atoms: _278  and  _279
REMARK  109  A    between atoms: _279  and  _496
REMARK  110  A    between atoms: _280  and  _282
REMARK  111  A    between atoms: _282  and  _283
REMARK  112  A    between atoms: _282  and  _285
REMARK  113  A    between atoms: _285  and  _286
REMARK  114  A    between atoms: _289  and  _291
REMARK  115  A    between atoms: _291  and  _292
REMARK  116  A    between atoms: _291  and  _294
REMARK  117  A    between atoms: _294  and  _295
REMARK  118  A    between atoms: _300  and  _301
REMARK  119  A    between atoms: _303  and  _305
REMARK  120  A    between atoms: _305  and  _306
REMARK  121  A    between atoms: _305  and  _308
REMARK  122  A    between atoms: _308  and  _309
REMARK  123  A    between atoms: _314  and  _315
REMARK  124  A    between atoms: _317  and  _319
REMARK  125  A    between atoms: _319  and  _320
REMARK  126  A    between atoms: _319  and  _322
REMARK  127  A    between atoms: _322  and  _323
REMARK  128  A    between atoms: _323  and  _324
REMARK  129  A    between atoms: _327  and  _329
REMARK  130  A    between atoms: _329  and  _330
REMARK  131  A    between atoms: _329  and  _332
REMARK  132  A    between atoms: _332  and  _333
REMARK  133  A    between atoms: _338  and  _339
REMARK  134  A    between atoms: _341  and  _343
REMARK  135  A    between atoms: _343  and  _344
REMARK  136  A    between atoms: _343  and  _346
REMARK  137  A    between atoms: _346  and  _347
REMARK  138  A    between atoms: _352  and  _354
REMARK  139  A    between atoms: _354  and  _355
REMARK  140  A    between atoms: _354  and  _357
REMARK  141  A    between atoms: _357  and  _358
REMARK  142  A    between atoms: _361  and  _363
REMARK  143  A    between atoms: _363  and  _364
REMARK  144  A    between atoms: _363  and  _366
REMARK  145  A    between atoms: _366  and  _367
REMARK  146  A    between atoms: _372  and  _374
REMARK  147  A    between atoms: _374  and  _375
REMARK  148  A    between atoms: _374  and  _377
REMARK  149  A    between atoms: _377  and  _378
REMARK  150  A    between atoms: _388  and  _390
REMARK  151  A    between atoms: _390  and  _391
REMARK  152  A    between atoms: _390  and  _393
REMARK  153  A    between atoms: _393  and  _394
REMARK  154  A    between atoms: _400  and  _402
REMARK  155  A    between atoms: _402  and  _403
REMARK  156  A    between atoms: _402  and  _405
REMARK  157  A    between atoms: _405  and  _406
REMARK  158  A    between atoms: _409  and  _411
REMARK  159  A    between atoms: _411  and  _412
REMARK  160  A    between atoms: _411  and  _414
REMARK  161  A    between atoms: _414  and  _415
REMARK  162  A    between atoms: _418  and  _420
REMARK  163  A    between atoms: _420  and  _421
REMARK  164  A    between atoms: _420  and  _423
REMARK  165  A    between atoms: _423  and  _424
REMARK  166  A    between atoms: _424  and  _425
REMARK  167  A    between atoms: _425  and  _426
REMARK  168  A    between atoms: _435  and  _437
REMARK  169  A    between atoms: _437  and  _438
REMARK  170  A    between atoms: _437  and  _440
REMARK  171  A    between atoms: _440  and  _441
REMARK  172  A    between atoms: _446  and  _448
REMARK  173  A    between atoms: _448  and  _449
REMARK  174  A    between atoms: _448  and  _451
REMARK  175  A    between atoms: _451  and  _452
REMARK  176  A    between atoms: _452  and  _453
REMARK  177  A    between atoms: _453  and  _454
REMARK  178  A    between atoms: _463  and  _465
REMARK  179  A    between atoms: _465  and  _466
REMARK  180  A    between atoms: _469  and  _471
REMARK  181  A    between atoms: _471  and  _472
REMARK  182  A    between atoms: _474  and  _476
REMARK  183  A    between atoms: _476  and  _477
REMARK  184  A    between atoms: _476  and  _479
REMARK  185  A    between atoms: _479  and  _480
REMARK  186  A    between atoms: _490  and  _492
REMARK  187  A    between atoms: _492  and  _493
REMARK  188  A    between atoms: _492  and  _495
REMARK  189  A    between atoms: _495  and  _496
REMARK  190  A    between atoms: _497  and  _499
REMARK  191  A    between atoms: _499  and  _500
REMARK  192  A    between atoms: _503  and  _505
REMARK  193  A    between atoms: _505  and  _506
REMARK  194  A    between atoms: _505  and  _508
REMARK  195  A    between atoms: _508  and  _509
REMARK  196  A    between atoms: _512  and  _514
REMARK  197  A    between atoms: _514  and  _515
REMARK  198  A    between atoms: _514  and  _517
REMARK  199  A    between atoms: _517  and  _518
REMARK  200  A    between atoms: _523  and  _524
REMARK  201  A    between atoms: _526  and  _528
REMARK  202  A    between atoms: _528  and  _529
REMARK  203  A    between atoms: _528  and  _531
REMARK  204  A    between atoms: _531  and  _532
REMARK  205  A    between atoms: _534  and  _536
REMARK  206  A    between atoms: _536  and  _537
REMARK  207  A    between atoms: _536  and  _539
REMARK  208  A    between atoms: _539  and  _540
REMARK  209  A    between atoms: _546  and  _548
REMARK  210  A    between atoms: _548  and  _549
REMARK  211  A    between atoms: _548  and  _551
REMARK  212  A    between atoms: _551  and  _552
REMARK  213  A    between atoms: _555  and  _557
REMARK  214  A    between atoms: _557  and  _558
REMARK  215  A    between atoms: _557  and  _560
REMARK  216  A    between atoms: _560  and  _561
REMARK  217  A    between atoms: _563  and  _565
REMARK  218  A    between atoms: _565  and  _566
REMARK  219  A    between atoms: _565  and  _568
REMARK  220  A    between atoms: _568  and  _569
REMARK  221  A    between atoms: _574  and  _576
REMARK  222  A    between atoms: _576  and  _577
REMARK  223  A    between atoms: _576  and  _579
REMARK  224  A    between atoms: _579  and  _580
REMARK  225  A    between atoms: _585  and  _587
REMARK  226  A    between atoms: _587  and  _588
REMARK  227  A    between atoms: _587  and  _590
REMARK  228  A    between atoms: _590  and  _591
REMARK  229  A    between atoms: _594  and  _596
REMARK  230  A    between atoms: _596  and  _597
REMARK  231  A    between atoms: _600  and  _602
REMARK  232  A    between atoms: _602  and  _603
REMARK  233  A    between atoms: _602  and  _605
REMARK  234  A    between atoms: _605  and  _606
REMARK  235  A    between atoms: _611  and  _612
REMARK  236  A    between atoms: _614  and  _616
REMARK  237  A    between atoms: _616  and  _617
REMARK  238  A    between atoms: _616  and  _619
REMARK  239  A    between atoms: _619  and  _620
REMARK  240  A    between atoms: _625  and  _626
REMARK  241  A    between atoms: _628  and  _630
REMARK  242  A    between atoms: _630  and  _631
REMARK  243  A    between atoms: _630  and  _633
REMARK  244  A    between atoms: _636  and  _638
REMARK  245  A    between atoms: _638  and  _639
REMARK  246  A    between atoms: _638  and  _641
REMARK  247  A    between atoms: _641  and  _642
REMARK  248  A    between atoms: _647  and  _649
REMARK  249  A    between atoms: _649  and  _650
REMARK  250  A    between atoms: _653  and  _655
REMARK  251  A    between atoms: _655  and  _656
REMARK  252  A    between atoms: _655  and  _658
REMARK  253  A    between atoms: _658  and  _659
REMARK  254  A    between atoms: _659  and  _660
REMARK  255  A    between atoms: _660  and  _661
REMARK  256  A    between atoms: _670  and  _672
REMARK  257  A    between atoms: _672  and  _673
REMARK  258  A    between atoms: _672  and  _675
REMARK  259  A    between atoms: _675  and  _676
REMARK  260  A    between atoms: _679  and  _681
REMARK  261  A    between atoms: _681  and  _682
REMARK  262  A    between atoms: _681  and  _684
REMARK  263  A    between atoms: _684  and  _685
REMARK  264  A    between atoms: _688  and  _690
REMARK  265  A    between atoms: _690  and  _691
REMARK  266  A    between atoms: _690  and  _693
REMARK  267  A    between atoms: _693  and  _694
REMARK  268  A    between atoms: _724  and  _725
REMARK  269  A    between atoms: _725  and  _731
REMARK                            x       y       z     vdW  Elec       q    Type
REMARK                         _______ _______ _______ _____ _____    ______ ____
ROOT
ATOM      1  CA  ARG A   1       5.501  28.961  23.358  0.00  0.00    +0.145 C 
ENDROOT
BRANCH   1   2
ATOM      2  C   ARG A   1       7.009  28.890  23.506  0.00  0.00    +0.238 C 
ATOM      3  O   ARG A   1       7.470  28.608  24.628  0.00  0.00    -0.274 OA
ATOM      4  N   HIS A   2       7.750  29.215  22.439  0.00  0.00    -0.298 N 
ATOM      5  H   HIS A   2       7.293  29.472  21.541  0.00  0.00    +0.150 HD
BRANCH   4   6
ATOM      6  CA  HIS A   2       9.209  29.205  22.550  0.00  0.00    +0.143 C 
BRANCH   6   7
ATOM      7  C   HIS A   2       9.705  30.320  23.471  0.00  0.00    +0.227 C 
ATOM      8  O   HIS A   2      10.700  30.077  24.181  0.00  0.00    -0.286 OA
ENDBRANCH   6   7
BRANCH   6   9
ATOM      9  CB  HIS A   2       9.946  29.372  21.236  0.00  0.00    +0.075 C 
BRANCH   9  10
ATOM     10  CG  HIS A   2      10.005  28.159  20.371  0.00  0.00    +0.082 A 
ATOM     11  ND1 HIS A   2      10.660  26.997  20.724  0.00  0.00    -0.227 NA
ATOM     12  CE1 HIS A   2      10.491  26.095  19.773  0.00  0.00    +0.199 A 
ATOM     13  NE2 HIS A   2       9.777  26.630  18.828  0.00  0.00    -0.221 NA
ATOM     14  CD2 HIS A   2       9.433  27.931  19.148  0.00  0.00    +0.115 A 
ENDBRANCH   9  10
ENDBRANCH   6   9
ENDBRANCH   4   6
ENDBRANCH   1   2
BRANCH   1  15
ATOM     15  N   ARG A   1       5.116  30.154  22.612  0.00  0.00    -0.238 NA
ATOM     16  H   ARG A   1       4.603  30.040  21.714  0.00  0.00    +0.142 HD
ENDBRANCH   1  15
BRANCH   1  17
ATOM     17  CB  ARG A   1       4.874  27.731  22.700  0.00  0.00    +0.030 C 
BRANCH  17  18
ATOM     18  CG  ARG A   1       3.349  27.734  22.971  0.00  0.00    +0.045 C 
BRANCH  18  19
ATOM     19  CD  ARG A   1       2.637  26.691  22.134  0.00  0.00    +0.174 C 
BRANCH  19  20
ATOM     20  NE  ARG A   1       3.123  25.358  22.525  0.00  0.00    -0.265 N 
ATOM     21  HE  ARG A   1       3.692  25.278  23.392  0.00  0.00    +0.259 HD
ATOM     22  CZ  ARG A   1       2.876  24.251  21.832  0.00  0.00    +0.342 C 
ATOM     23  NH2 ARG A   1       3.388  23.087  22.255  0.00  0.00    -0.292 N 
ATOM     24 HH21 ARG A   1       3.971  23.057  23.116  0.00  0.00    +0.255 HD
ATOM     25 HH22 ARG A   1       3.203  22.213  21.722  0.00  0.00    +0.255 HD
ATOM     26  NH1 ARG A   1       2.188  24.298  20.679  0.00  0.00    -0.292 N 
ATOM     27 HH11 ARG A   1       1.841  25.209  20.317  0.00  0.00    +0.255 HD
ATOM     28 HH12 ARG A   1       2.003  23.423  20.148  0.00  0.00    +0.255 HD
ENDBRANCH  19  20
ENDBRANCH  18  19
ENDBRANCH  17  18
ENDBRANCH   1  17
TORSDOF 10
REMARK  Name = ../refined-set-2016/1b3h/1b3h_pocket.pdb
REMARK  269 active torsions:
REMARK  status: ('A' for Active; 'I' for Inactive)
REMARK    1  A    between atoms: _1  and  _3
REMARK    2  A    between atoms: _3  and  _4
REMARK    3  A    between atoms: _3  and  _6
REMARK    4  A    between atoms: _6  and  _7
REMARK    5  A    between atoms: _12  and  _14
REMARK    6  A    between atoms: _14  and  _15
REMARK    7  A    between atoms: _17  and  _19
REMARK    8  A    between atoms: _19  and  _20
REMARK    9  A    between atoms: _19  and  _22
REMARK   10  A    between atoms: _22  and  _23
REMARK   11  A    between atoms: _25  and  _27
REMARK   12  A    between atoms: _27  and  _28
REMARK   13  A    between atoms: _27  and  _30
REMARK   14  A    between atoms: _30  and  _31
REMARK   15  A    between atoms: _31  and  _32
REMARK   16  A    between atoms: _37  and  _39
REMARK   17  A    between atoms: _39  and  _40
REMARK   18  A    between atoms: _39  and  _42
REMARK   19  A    between atoms: _42  and  _43
REMARK   20  A    between atoms: _46  and  _48
REMARK   21  A    between atoms: _48  and  _49
REMARK   22  A    between atoms: _48  and  _51
REMARK   23  A    between atoms: _51  and  _52
REMARK   24  A    between atoms: _52  and  _53
REMARK   25  A    between atoms: _56  and  _58
REMARK   26  A    between atoms: _58  and  _59
REMARK   27  A    between atoms: _61  and  _63
REMARK   28  A    between atoms: _63  and  _64
REMARK   29  A    between atoms: _63  and  _66
REMARK   30  A    between atoms: _70  and  _71
REMARK   31  A    between atoms: _76  and  _78
REMARK   32  A    between atoms: _78  and  _79
REMARK   33  A    between atoms: _78  and  _81
REMARK   34  A    between atoms: _81  and  _82
REMARK   35  A    between atoms: _82  and  _83
REMARK   36  A    between atoms: _86  and  _88
REMARK   37  A    between atoms: _88  and  _89
REMARK   38  A    between atoms: _88  and  _91
REMARK   39  A    between atoms: _91  and  _92
REMARK   40  A    between atoms: _94  and  _96
REMARK   41  A    between atoms: _96  and  _97
REMARK   42  A    between atoms: _96  and  _99
REMARK   43  A    between atoms: _99  and  _100
REMARK   44  A    between atoms: _105  and  _107
REMARK   45  A    between atoms: _107  and  _108
REMARK   46  A    between atoms: _107  and  _110
REMARK   47  A    between atoms: _110  and  _111
REMARK   48  A    between atoms: _111  and  _112
REMARK   49  A    between atoms: _112  and  _113
REMARK   50  A    between atoms: _123  and  _124
REMARK   51  A    between atoms: _129  and  _131
REMARK   52  A    between atoms: _131  and  _132
REMARK   53  A    between atoms: _131  and  _134
REMARK   54  A    between atoms: _134  and  _135
REMARK   55  A    between atoms: _140  and  _141
REMARK   56  A    between atoms: _143  and  _145
REMARK   57  A    between atoms: _145  and  _146
REMARK   58  A    between atoms: _145  and  _148
REMARK   59  A    between atoms: _148  and  _149
REMARK   60  A    between atoms: _154  and  _155
REMARK   61  A    between atoms: _157  and  _159
REMARK   62  A    between atoms: _159  and  _160
REMARK   63  A    between atoms: _159  and  _162
REMARK   64  A    between atoms: _162  and  _163
REMARK   65  A    between atoms: _168  and  _169
REMARK   66  A    between atoms: _171  and  _173
REMARK   67  A    between atoms: _173  and  _174
REMARK   68  A    between atoms: _173  and  _176
REMARK   69  A    between atoms: _179  and  _181
REMARK   70  A    between atoms: _181  and  _182
REMARK   71  A    between atoms: _181  and  _184
REMARK   72  A    between atoms: _184  and  _185
REMARK   73  A    between atoms: _191  and  _192
REMARK   74  A    between atoms: _197  and  _199
REMARK   75  A    between atoms: _199  and  _200
REMARK   76  A    between atoms: _199  and  _202
REMARK   77  A    between atoms: _202  and  _203
REMARK   78  A    between atoms: _205  and  _207
REMARK   79  A    between atoms: _207  and  _208
REMARK   80  A    between atoms: _207  and  _210
REMARK   81  A    between atoms: _210  and  _211
REMARK   82  A    between atoms: _216  and  _217
REMARK   83  A    between atoms: _219  and  _221
REMARK   84  A    between atoms: _221  and  _222
REMARK   85  A    between atoms: _221  and  _224
REMARK   86  A    between atoms: _224  and  _225
REMARK   87  A    between atoms: _230  and  _232
REMARK   88  A    between atoms: _232  and  _233
REMARK   89  A    between atoms: _232  and  _235
REMARK   90  A    between atoms: _235  and  _236
REMARK   91  A    between atoms: _241  and  _243
REMARK   92  A    between atoms: _243  and  _244
REMARK   93  A    between atoms: _243  and  _246
REMARK   94  A    between atoms: _246  and  _247
REMARK   95  A    between atoms: _247  and  _248
REMARK   96  A    between atoms: _250  and  _252
REMARK   97  A    between atoms: _252  and  _253
REMARK   98  A    between atoms: _252  and  _255
REMARK   99  A    between atoms: _255  and  _256
REMARK  100  A    between atoms: _261  and  _262
REMARK  101  A    between atoms: _264  and  _266
REMARK  102  A    between atoms: _266  and  _267
REMARK  103  A    between atoms: _266  and  _269
REMARK  104  A    between atoms: _269  and  _270
REMARK  105  A    between atoms: _273  and  _275
REMARK  106  A    between atoms: _275  and  _276
REMARK  107  A    between atoms: _275  and  _278
REMARK  108  A    between atoms: _278  and  _279
REMARK  109  A    between atoms: _279  and  _496
REMARK  110  A    between atoms: _280  and  _282
REMARK  111  A    between atoms: _282  and  _283
REMARK  112  A    between atoms: _282  and  _285
REMARK  113  A    between atoms: _285  and  _286
REMARK  114  A    between atoms: _289  and  _291
REMARK  115  A    between atoms: _291  and  _292
REMARK  116  A    between atoms: _291  and  _294
REMARK  117  A    between atoms: _294  and  _295
REMARK  118  A    between atoms: _300  and  _301
REMARK  119  A    between atoms: _303  and  _305
REMARK  120  A    between atoms: _305  and  _306
REMARK  121  A    between atoms: _305  and  _308
REMARK  122  A    between atoms: _308  and  _309
REMARK  123  A    between atoms: _314  and  _315
REMARK  124  A    between atoms: _317  and  _319
REMARK  125  A    between atoms: _319  and  _320
REMARK  126  A    between atoms: _319  and  _322
REMARK  127  A    between atoms: _322  and  _323
REMARK  128  A    between atoms: _323  and  _324
REMARK  129  A    between atoms: _327  and  _329
REMARK  130  A    between atoms: _329  and  _330
REMARK  131  A    between atoms: _329  and  _332
REMARK  132  A    between atoms: _332  and  _333
REMARK  133  A    between atoms: _338  and  _339
REMARK  134  A    between atoms: _341  and  _343
REMARK  135  A    between atoms: _343  and  _344
REMARK  136  A    between atoms: _343  and  _346
REMARK  137  A    between atoms: _346  and  _347
REMARK  138  A    between atoms: _352  and  _354
REMARK  139  A    between atoms: _354  and  _355
REMARK  140  A    between atoms: _354  and  _357
REMARK  141  A    between atoms: _357  and  _358
REMARK  142  A    between atoms: _361  and  _363
REMARK  143  A    between atoms: _363  and  _364
REMARK  144  A    between atoms: _363  and  _366
REMARK  145  A    between atoms: _366  and  _367
REMARK  146  A    between atoms: _372  and  _374
REMARK  147  A    between atoms: _374  and  _375
REMARK  148  A    between atoms: _374  and  _377
REMARK  149  A    between atoms: _377  and  _378
REMARK  150  A    between atoms: _388  and  _390
REMARK  151  A    between atoms: _390  and  _391
REMARK  152  A    between atoms: _390  and  _393
REMARK  153  A    between atoms: _393  and  _394
REMARK  154  A    between atoms: _400  and  _402
REMARK  155  A    between atoms: _402  and  _403
REMARK  156  A    between atoms: _402  and  _405
REMARK  157  A    between atoms: _405  and  _406
REMARK  158  A    between atoms: _409  and  _411
REMARK  159  A    between atoms: _411  and  _412
REMARK  160  A    between atoms: _411  and  _414
REMARK  161  A    between atoms: _414  and  _415
REMARK  162  A    between atoms: _418  and  _420
REMARK  163  A    between atoms: _420  and  _421
REMARK  164  A    between atoms: _420  and  _423
REMARK  165  A    between atoms: _423  and  _424
REMARK  166  A    between atoms: _424  and  _425
REMARK  167  A    between atoms: _425  and  _426
REMARK  168  A    between atoms: _435  and  _437
REMARK  169  A    between atoms: _437  and  _438
REMARK  170  A    between atoms: _437  and  _440
REMARK  171  A    between atoms: _440  and  _441
REMARK  172  A    between atoms: _446  and  _448
REMARK  173  A    between atoms: _448  and  _449
REMARK  174  A    between atoms: _448  and  _451
REMARK  175  A    between atoms: _451  and  _452
REMARK  176  A    between atoms: _452  and  _453
REMARK  177  A    between atoms: _453  and  _454
REMARK  178  A    between atoms: _463  and  _465
REMARK  179  A    between atoms: _465  and  _466
REMARK  180  A    between atoms: _469  and  _471
REMARK  181  A    between atoms: _471  and  _472
REMARK  182  A    between atoms: _474  and  _476
REMARK  183  A    between atoms: _476  and  _477
REMARK  184  A    between atoms: _476  and  _479
REMARK  185  A    between atoms: _479  and  _480
REMARK  186  A    between atoms: _490  and  _492
REMARK  187  A    between atoms: _492  and  _493
REMARK  188  A    between atoms: _492  and  _495
REMARK  189  A    between atoms: _495  and  _496
REMARK  190  A    between atoms: _497  and  _499
REMARK  191  A    between atoms: _499  and  _500
REMARK  192  A    between atoms: _503  and  _505
REMARK  193  A    between atoms: _505  and  _506
REMARK  194  A    between atoms: _505  and  _508
REMARK  195  A    between atoms: _508  and  _509
REMARK  196  A    between atoms: _512  and  _514
REMARK  197  A    between atoms: _514  and  _515
REMARK  198  A    between atoms: _514  and  _517
REMARK  199  A    between atoms: _517  and  _518
REMARK  200  A    between atoms: _523  and  _524
REMARK  201  A    between atoms: _526  and  _528
REMARK  202  A    between atoms: _528  and  _529
REMARK  203  A    between atoms: _528  and  _531
REMARK  204  A    between atoms: _531  and  _532
REMARK  205  A    between atoms: _534  and  _536
REMARK  206  A    between atoms: _536  and  _537
REMARK  207  A    between atoms: _536  and  _539
REMARK  208  A    between atoms: _539  and  _540
REMARK  209  A    between atoms: _546  and  _548
REMARK  210  A    between atoms: _548  and  _549
REMARK  211  A    between atoms: _548  and  _551
REMARK  212  A    between atoms: _551  and  _552
REMARK  213  A    between atoms: _555  and  _557
REMARK  214  A    between atoms: _557  and  _558
REMARK  215  A    between atoms: _557  and  _560
REMARK  216  A    between atoms: _560  and  _561
REMARK  217  A    between atoms: _563  and  _565
REMARK  218  A    between atoms: _565  and  _566
REMARK  219  A    between atoms: _565  and  _568
REMARK  220  A    between atoms: _568  and  _569
REMARK  221  A    between atoms: _574  and  _576
REMARK  222  A    between atoms: _576  and  _577
REMARK  223  A    between atoms: _576  and  _579
REMARK  224  A    between atoms: _579  and  _580
REMARK  225  A    between atoms: _585  and  _587
REMARK  226  A    between atoms: _587  and  _588
REMARK  227  A    between atoms: _587  and  _590
REMARK  228  A    between atoms: _590  and  _591
REMARK  229  A    between atoms: _594  and  _596
REMARK  230  A    between atoms: _596  and  _597
REMARK  231  A    between atoms: _600  and  _602
REMARK  232  A    between atoms: _602  and  _603
REMARK  233  A    between atoms: _602  and  _605
REMARK  234  A    between atoms: _605  and  _606
REMARK  235  A    between atoms: _611  and  _612
REMARK  236  A    between atoms: _614  and  _616
REMARK  237  A    between atoms: _616  and  _617
REMARK  238  A    between atoms: _616  and  _619
REMARK  239  A    between atoms: _619  and  _620
REMARK  240  A    between atoms: _625  and  _626
REMARK  241  A    between atoms: _628  and  _630
REMARK  242  A    between atoms: _630  and  _631
REMARK  243  A    between atoms: _630  and  _633
REMARK  244  A    between atoms: _636  and  _638
REMARK  245  A    between atoms: _638  and  _639
REMARK  246  A    between atoms: _638  and  _641
REMARK  247  A    between atoms: _641  and  _642
REMARK  248  A    between atoms: _647  and  _649
REMARK  249  A    between atoms: _649  and  _650
REMARK  250  A    between atoms: _653  and  _655
REMARK  251  A    between atoms: _655  and  _656
REMARK  252  A    between atoms: _655  and  _658
REMARK  253  A    between atoms: _658  and  _659
REMARK  254  A    between atoms: _659  and  _660
REMARK  255  A    between atoms: _660  and  _661
REMARK  256  A    between atoms: _670  and  _672
REMARK  257  A    between atoms: _672  and  _673
REMARK  258  A    between atoms: _672  and  _675
REMARK  259  A    between atoms: _675  and  _676
REMARK  260  A    between atoms: _679  and  _681
REMARK  261  A    between atoms: _681  and  _682
REMARK  262  A    between atoms: _681  and  _684
REMARK  263  A    between atoms: _684  and  _685
REMARK  264  A    between atoms: _688  and  _690
REMARK  265  A    between atoms: _690  and  _691
REMARK  266  A    between atoms: _690  and  _693
REMARK  267  A    between atoms: _693  and  _694
REMARK  268  A    between atoms: _724  and  _725
REMARK  269  A    between atoms: _725  and  _731
REMARK                            x       y       z     vdW  Elec       q    Type
REMARK                         _______ _______ _______ _____ _____    ______ ____
ROOT
ATOM      1  C   SER A   1       9.921  11.857  19.491  0.00  0.00    +0.241 C 
ATOM      2  N   PHE A   2       9.305  11.288  20.525  0.00  0.00    -0.298 N 
ATOM      3  H   PHE A   2       9.335  10.256  20.652  0.00  0.00    +0.150 HD
ATOM      4  O   SER A   1       9.837  13.089  19.250  0.00  0.00    -0.274 OA
ENDROOT
BRANCH   1   5
ATOM      5  CA  SER A   1      10.842  10.984  18.623  0.00  0.00    +0.174 C 
BRANCH   5   6
ATOM      6  N   SER A   1      11.452   9.926  19.413  0.00  0.00    -0.236 NA
ATOM      7  H   SER A   1      11.303   8.938  19.125  0.00  0.00    +0.142 HD
ENDBRANCH   5   6
BRANCH   5   8
ATOM      8  CB  SER A   1      10.060  10.461  17.407  0.00  0.00    +0.163 C 
BRANCH   8   9
ATOM      9  OG  SER A   1       9.764  11.618  16.616  0.00  0.00    -0.380 OA
ATOM     10  H   SER A   1      10.609  12.054  16.342  0.00  0.00    +0.211 HD
ENDBRANCH   8   9
ENDBRANCH   5   8
ENDBRANCH   1   5
BRANCH   2  11
ATOM     11  CA  PHE A   2       8.582  12.134  21.485  0.00  0.00    +0.141 C 
BRANCH  11  12
ATOM     12  C   PHE A   2       9.489  12.584  22.634  0.00  0.00    +0.227 C 
ATOM     13  O   PHE A   2       9.610  13.758  23.039  0.00  0.00    -0.286 OA
ENDBRANCH  11  12
BRANCH  11  14
ATOM     14  CB  PHE A   2       7.420  11.336  22.106  0.00  0.00    +0.054 C 
BRANCH  14  15
ATOM     15  CG  PHE A   2       6.117  11.462  21.341  0.00  0.00    -0.020 A 
ATOM     16  CD2 PHE A   2       5.093  12.222  21.858  0.00  0.00    -0.004 A 
ATOM     17  CE2 PHE A   2       3.921  12.369  21.124  0.00  0.00    -0.000 A 
ATOM     18  CZ  PHE A   2       3.768  11.754  19.883  0.00  0.00    -0.000 A 
ATOM     19  CE1 PHE A   2       4.810  11.003  19.391  0.00  0.00    -0.000 A 
ATOM     20  CD1 PHE A   2       5.989  10.858  20.104  0.00  0.00    -0.004 A 
ENDBRANCH  14  15
ENDBRANCH  11  14
ENDBRANCH   2  11
TORSDOF 8
REMARK  Name = ../refined-set-2016/1b3h/1b3h_pocket.pdb
REMARK  269 active torsions:
REMARK  status: ('A' for Active; 'I' for Inactive)
REMARK    1  A    between atoms: _1  and  _3
REMARK    2  A    between atoms: _3  and  _4
REMARK    3  A    between atoms: _3  and  _6
REMARK    4  A    between atoms: _6  and  _7
REMARK    5  A    between atoms: _12  and  _14
REMARK    6  A    between atoms: _14  and  _15
REMARK    7  A    between atoms: _17  and  _19
REMARK    8  A    between atoms: _19  and  _20
REMARK    9  A    between atoms: _19  and  _22
REMARK   10  A    between atoms: _22  and  _23
REMARK   11  A    between atoms: _25  and  _27
REMARK   12  A    between atoms: _27  and  _28
REMARK   13  A    between atoms: _27  and  _30
REMARK   14  A    between atoms: _30  and  _31
REMARK   15  A    between atoms: _31  and  _32
REMARK   16  A    between atoms: _37  and  _39
REMARK   17  A    between atoms: _39  and  _40
REMARK   18  A    between atoms: _39  and  _42
REMARK   19  A    between atoms: _42  and  _43
REMARK   20  A    between atoms: _46  and  _48
REMARK   21  A    between atoms: _48  and  _49
REMARK   22  A    between atoms: _48  and  _51
REMARK   23  A    between atoms: _51  and  _52
REMARK   24  A    between atoms: _52  and  _53
REMARK   25  A    between atoms: _56  and  _58
REMARK   26  A    between atoms: _58  and  _59
REMARK   27  A    between atoms: _61  and  _63
REMARK   28  A    between atoms: _63  and  _64
REMARK   29  A    between atoms: _63  and  _66
REMARK   30  A    between atoms: _70  and  _71
REMARK   31  A    between atoms: _76  and  _78
REMARK   32  A    between atoms: _78  and  _79
REMARK   33  A    between atoms: _78  and  _81
REMARK   34  A    between atoms: _81  and  _82
REMARK   35  A    between atoms: _82  and  _83
REMARK   36  A    between atoms: _86  and  _88
REMARK   37  A    between atoms: _88  and  _89
REMARK   38  A    between atoms: _88  and  _91
REMARK   39  A    between atoms: _91  and  _92
REMARK   40  A    between atoms: _94  and  _96
REMARK   41  A    between atoms: _96  and  _97
REMARK   42  A    between atoms: _96  and  _99
REMARK   43  A    between atoms: _99  and  _100
REMARK   44  A    between atoms: _105  and  _107
REMARK   45  A    between atoms: _107  and  _108
REMARK   46  A    between atoms: _107  and  _110
REMARK   47  A    between atoms: _110  and  _111
REMARK   48  A    between atoms: _111  and  _112
REMARK   49  A    between atoms: _112  and  _113
REMARK   50  A    between atoms: _123  and  _124
REMARK   51  A    between atoms: _129  and  _131
REMARK   52  A    between atoms: _131  and  _132
REMARK   53  A    between atoms: _131  and  _134
REMARK   54  A    between atoms: _134  and  _135
REMARK   55  A    between atoms: _140  and  _141
REMARK   56  A    between atoms: _143  and  _145
REMARK   57  A    between atoms: _145  and  _146
REMARK   58  A    between atoms: _145  and  _148
REMARK   59  A    between atoms: _148  and  _149
REMARK   60  A    between atoms: _154  and  _155
REMARK   61  A    between atoms: _157  and  _159
REMARK   62  A    between atoms: _159  and  _160
REMARK   63  A    between atoms: _159  and  _162
REMARK   64  A    between atoms: _162  and  _163
REMARK   65  A    between atoms: _168  and  _169
REMARK   66  A    between atoms: _171  and  _173
REMARK   67  A    between atoms: _173  and  _174
REMARK   68  A    between atoms: _173  and  _176
REMARK   69  A    between atoms: _179  and  _181
REMARK   70  A    between atoms: _181  and  _182
REMARK   71  A    between atoms: _181  and  _184
REMARK   72  A    between atoms: _184  and  _185
REMARK   73  A    between atoms: _191  and  _192
REMARK   74  A    between atoms: _197  and  _199
REMARK   75  A    between atoms: _199  and  _200
REMARK   76  A    between atoms: _199  and  _202
REMARK   77  A    between atoms: _202  and  _203
REMARK   78  A    between atoms: _205  and  _207
REMARK   79  A    between atoms: _207  and  _208
REMARK   80  A    between atoms: _207  and  _210
REMARK   81  A    between atoms: _210  and  _211
REMARK   82  A    between atoms: _216  and  _217
REMARK   83  A    between atoms: _219  and  _221
REMARK   84  A    between atoms: _221  and  _222
REMARK   85  A    between atoms: _221  and  _224
REMARK   86  A    between atoms: _224  and  _225
REMARK   87  A    between atoms: _230  and  _232
REMARK   88  A    between atoms: _232  and  _233
REMARK   89  A    between atoms: _232  and  _235
REMARK   90  A    between atoms: _235  and  _236
REMARK   91  A    between atoms: _241  and  _243
REMARK   92  A    between atoms: _243  and  _244
REMARK   93  A    between atoms: _243  and  _246
REMARK   94  A    between atoms: _246  and  _247
REMARK   95  A    between atoms: _247  and  _248
REMARK   96  A    between atoms: _250  and  _252
REMARK   97  A    between atoms: _252  and  _253
REMARK   98  A    between atoms: _252  and  _255
REMARK   99  A    between atoms: _255  and  _256
REMARK  100  A    between atoms: _261  and  _262
REMARK  101  A    between atoms: _264  and  _266
REMARK  102  A    between atoms: _266  and  _267
REMARK  103  A    between atoms: _266  and  _269
REMARK  104  A    between atoms: _269  and  _270
REMARK  105  A    between atoms: _273  and  _275
REMARK  106  A    between atoms: _275  and  _276
REMARK  107  A    between atoms: _275  and  _278
REMARK  108  A    between atoms: _278  and  _279
REMARK  109  A    between atoms: _279  and  _496
REMARK  110  A    between atoms: _280  and  _282
REMARK  111  A    between atoms: _282  and  _283
REMARK  112  A    between atoms: _282  and  _285
REMARK  113  A    between atoms: _285  and  _286
REMARK  114  A    between atoms: _289  and  _291
REMARK  115  A    between atoms: _291  and  _292
REMARK  116  A    between atoms: _291  and  _294
REMARK  117  A    between atoms: _294  and  _295
REMARK  118  A    between atoms: _300  and  _301
REMARK  119  A    between atoms: _303  and  _305
REMARK  120  A    between atoms: _305  and  _306
REMARK  121  A    between atoms: _305  and  _308
REMARK  122  A    between atoms: _308  and  _309
REMARK  123  A    between atoms: _314  and  _315
REMARK  124  A    between atoms: _317  and  _319
REMARK  125  A    between atoms: _319  and  _320
REMARK  126  A    between atoms: _319  and  _322
REMARK  127  A    between atoms: _322  and  _323
REMARK  128  A    between atoms: _323  and  _324
REMARK  129  A    between atoms: _327  and  _329
REMARK  130  A    between atoms: _329  and  _330
REMARK  131  A    between atoms: _329  and  _332
REMARK  132  A    between atoms: _332  and  _333
REMARK  133  A    between atoms: _338  and  _339
REMARK  134  A    between atoms: _341  and  _343
REMARK  135  A    between atoms: _343  and  _344
REMARK  136  A    between atoms: _343  and  _346
REMARK  137  A    between atoms: _346  and  _347
REMARK  138  A    between atoms: _352  and  _354
REMARK  139  A    between atoms: _354  and  _355
REMARK  140  A    between atoms: _354  and  _357
REMARK  141  A    between atoms: _357  and  _358
REMARK  142  A    between atoms: _361  and  _363
REMARK  143  A    between atoms: _363  and  _364
REMARK  144  A    between atoms: _363  and  _366
REMARK  145  A    between atoms: _366  and  _367
REMARK  146  A    between atoms: _372  and  _374
REMARK  147  A    between atoms: _374  and  _375
REMARK  148  A    between atoms: _374  and  _377
REMARK  149  A    between atoms: _377  and  _378
REMARK  150  A    between atoms: _388  and  _390
REMARK  151  A    between atoms: _390  and  _391
REMARK  152  A    between atoms: _390  and  _393
REMARK  153  A    between atoms: _393  and  _394
REMARK  154  A    between atoms: _400  and  _402
REMARK  155  A    between atoms: _402  and  _403
REMARK  156  A    between atoms: _402  and  _405
REMARK  157  A    between atoms: _405  and  _406
REMARK  158  A    between atoms: _409  and  _411
REMARK  159  A    between atoms: _411  and  _412
REMARK  160  A    between atoms: _411  and  _414
REMARK  161  A    between atoms: _414  and  _415
REMARK  162  A    between atoms: _418  and  _420
REMARK  163  A    between atoms: _420  and  _421
REMARK  164  A    between atoms: _420  and  _423
REMARK  165  A    between atoms: _423  and  _424
REMARK  166  A    between atoms: _424  and  _425
REMARK  167  A    between atoms: _425  and  _426
REMARK  168  A    between atoms: _435  and  _437
REMARK  169  A    between atoms: _437  and  _438
REMARK  170  A    between atoms: _437  and  _440
REMARK  171  A    between atoms: _440  and  _441
REMARK  172  A    between atoms: _446  and  _448
REMARK  173  A    between atoms: _448  and  _449
REMARK  174  A    between atoms: _448  and  _451
REMARK  175  A    between atoms: _451  and  _452
REMARK  176  A    between atoms: _452  and  _453
REMARK  177  A    between atoms: _453  and  _454
REMARK  178  A    between atoms: _463  and  _465
REMARK  179  A    between atoms: _465  and  _466
REMARK  180  A    between atoms: _469  and  _471
REMARK  181  A    between atoms: _471  and  _472
REMARK  182  A    between atoms: _474  and  _476
REMARK  183  A    between atoms: _476  and  _477
REMARK  184  A    between atoms: _476  and  _479
REMARK  185  A    between atoms: _479  and  _480
REMARK  186  A    between atoms: _490  and  _492
REMARK  187  A    between atoms: _492  and  _493
REMARK  188  A    between atoms: _492  and  _495
REMARK  189  A    between atoms: _495  and  _496
REMARK  190  A    between atoms: _497  and  _499
REMARK  191  A    between atoms: _499  and  _500
REMARK  192  A    between atoms: _503  and  _505
REMARK  193  A    between atoms: _505  and  _506
REMARK  194  A    between atoms: _505  and  _508
REMARK  195  A    between atoms: _508  and  _509
REMARK  196  A    between atoms: _512  and  _514
REMARK  197  A    between atoms: _514  and  _515
REMARK  198  A    between atoms: _514  and  _517
REMARK  199  A    between atoms: _517  and  _518
REMARK  200  A    between atoms: _523  and  _524
REMARK  201  A    between atoms: _526  and  _528
REMARK  202  A    between atoms: _528  and  _529
REMARK  203  A    between atoms: _528  and  _531
REMARK  204  A    between atoms: _531  and  _532
REMARK  205  A    between atoms: _534  and  _536
REMARK  206  A    between atoms: _536  and  _537
REMARK  207  A    between atoms: _536  and  _539
REMARK  208  A    between atoms: _539  and  _540
REMARK  209  A    between atoms: _546  and  _548
REMARK  210  A    between atoms: _548  and  _549
REMARK  211  A    between atoms: _548  and  _551
REMARK  212  A    between atoms: _551  and  _552
REMARK  213  A    between atoms: _555  and  _557
REMARK  214  A    between atoms: _557  and  _558
REMARK  215  A    between atoms: _557  and  _560
REMARK  216  A    between atoms: _560  and  _561
REMARK  217  A    between atoms: _563  and  _565
REMARK  218  A    between atoms: _565  and  _566
REMARK  219  A    between atoms: _565  and  _568
REMARK  220  A    between atoms: _568  and  _569
REMARK  221  A    between atoms: _574  and  _576
REMARK  222  A    between atoms: _576  and  _577
REMARK  223  A    between atoms: _576  and  _579
REMARK  224  A    between atoms: _579  and  _580
REMARK  225  A    between atoms: _585  and  _587
REMARK  226  A    between atoms: _587  and  _588
REMARK  227  A    between atoms: _587  and  _590
REMARK  228  A    between atoms: _590  and  _591
REMARK  229  A    between atoms: _594  and  _596
REMARK  230  A    between atoms: _596  and  _597
REMARK  231  A    between atoms: _600  and  _602
REMARK  232  A    between atoms: _602  and  _603
REMARK  233  A    between atoms: _602  and  _605
REMARK  234  A    between atoms: _605  and  _606
REMARK  235  A    between atoms: _611  and  _612
REMARK  236  A    between atoms: _614  and  _616
REMARK  237  A    between atoms: _616  and  _617
REMARK  238  A    between atoms: _616  and  _619
REMARK  239  A    between atoms: _619  and  _620
REMARK  240  A    between atoms: _625  and  _626
REMARK  241  A    between atoms: _628  and  _630
REMARK  242  A    between atoms: _630  and  _631
REMARK  243  A    between atoms: _630  and  _633
REMARK  244  A    between atoms: _636  and  _638
REMARK  245  A    between atoms: _638  and  _639
REMARK  246  A    between atoms: _638  and  _641
REMARK  247  A    between atoms: _641  and  _642
REMARK  248  A    between atoms: _647  and  _649
REMARK  249  A    between atoms: _649  and  _650
REMARK  250  A    between atoms: _653  and  _655
REMARK  251  A    between atoms: _655  and  _656
REMARK  252  A    between atoms: _655  and  _658
REMARK  253  A    between atoms: _658  and  _659
REMARK  254  A    between atoms: _659  and  _660
REMARK  255  A    between atoms: _660  and  _661
REMARK  256  A    between atoms: _670  and  _672
REMARK  257  A    between atoms: _672  and  _673
REMARK  258  A    between atoms: _672  and  _675
REMARK  259  A    between atoms: _675  and  _676
REMARK  260  A    between atoms: _679  and  _681
REMARK  261  A    between atoms: _681  and  _682
REMARK  262  A    between atoms: _681  and  _684
REMARK  263  A    between atoms: _684  and  _685
REMARK  264  A    between atoms: _688  and  _690
REMARK  265  A    between atoms: _690  and  _691
REMARK  266  A    between atoms: _690  and  _693
REMARK  267  A    between atoms: _693  and  _694
REMARK  268  A    between atoms: _724  and  _725
REMARK  269  A    between atoms: _725  and  _731
REMARK                            x       y       z     vdW  Elec       q    Type
REMARK                         _______ _______ _______ _____ _____    ______ ____
ROOT
ATOM      1  CA  THR A   1      11.642  16.812  23.035  0.00  0.00    +0.160 C 
ENDROOT
BRANCH   1   2
ATOM      2  N   THR A   1      12.166  15.453  22.958  0.00  0.00    -0.237 NA
ATOM      3  H   THR A   1      11.517  14.685  22.692  0.00  0.00    +0.142 HD
ENDBRANCH   1   2
BRANCH   1   4
ATOM      4  C   THR A   1      11.517  17.340  24.463  0.00  0.00    +0.227 C 
ATOM      5  O   THR A   1      11.350  18.585  24.678  0.00  0.00    -0.287 OA
ENDBRANCH   1   4
BRANCH   1   6
ATOM      6  CB  THR A   1      10.275  16.998  22.381  0.00  0.00    +0.134 C 
ATOM      7  CG2 THR A   1      10.255  16.511  20.932  0.00  0.00    +0.034 C 
BRANCH   6   8
ATOM      8  OG1 THR A   1       9.250  16.338  23.131  0.00  0.00    -0.383 OA
ATOM      9  HG1 THR A   1       9.449  15.369  23.179  0.00  0.00    +0.210 HD
ENDBRANCH   6   8
ENDBRANCH   1   6
TORSDOF 4
REMARK  Name = ../refined-set-2016/1b3h/1b3h_pocket.pdb
REMARK  269 active torsions:
REMARK  status: ('A' for Active; 'I' for Inactive)
REMARK    1  A    between atoms: _1  and  _3
REMARK    2  A    between atoms: _3  and  _4
REMARK    3  A    between atoms: _3  and  _6
REMARK    4  A    between atoms: _6  and  _7
REMARK    5  A    between atoms: _12  and  _14
REMARK    6  A    between atoms: _14  and  _15
REMARK    7  A    between atoms: _17  and  _19
REMARK    8  A    between atoms: _19  and  _20
REMARK    9  A    between atoms: _19  and  _22
REMARK   10  A    between atoms: _22  and  _23
REMARK   11  A    between atoms: _25  and  _27
REMARK   12  A    between atoms: _27  and  _28
REMARK   13  A    between atoms: _27  and  _30
REMARK   14  A    between atoms: _30  and  _31
REMARK   15  A    between atoms: _31  and  _32
REMARK   16  A    between atoms: _37  and  _39
REMARK   17  A    between atoms: _39  and  _40
REMARK   18  A    between atoms: _39  and  _42
REMARK   19  A    between atoms: _42  and  _43
REMARK   20  A    between atoms: _46  and  _48
REMARK   21  A    between atoms: _48  and  _49
REMARK   22  A    between atoms: _48  and  _51
REMARK   23  A    between atoms: _51  and  _52
REMARK   24  A    between atoms: _52  and  _53
REMARK   25  A    between atoms: _56  and  _58
REMARK   26  A    between atoms: _58  and  _59
REMARK   27  A    between atoms: _61  and  _63
REMARK   28  A    between atoms: _63  and  _64
REMARK   29  A    between atoms: _63  and  _66
REMARK   30  A    between atoms: _70  and  _71
REMARK   31  A    between atoms: _76  and  _78
REMARK   32  A    between atoms: _78  and  _79
REMARK   33  A    between atoms: _78  and  _81
REMARK   34  A    between atoms: _81  and  _82
REMARK   35  A    between atoms: _82  and  _83
REMARK   36  A    between atoms: _86  and  _88
REMARK   37  A    between atoms: _88  and  _89
REMARK   38  A    between atoms: _88  and  _91
REMARK   39  A    between atoms: _91  and  _92
REMARK   40  A    between atoms: _94  and  _96
REMARK   41  A    between atoms: _96  and  _97
REMARK   42  A    between atoms: _96  and  _99
REMARK   43  A    between atoms: _99  and  _100
REMARK   44  A    between atoms: _105  and  _107
REMARK   45  A    between atoms: _107  and  _108
REMARK   46  A    between atoms: _107  and  _110
REMARK   47  A    between atoms: _110  and  _111
REMARK   48  A    between atoms: _111  and  _112
REMARK   49  A    between atoms: _112  and  _113
REMARK   50  A    between atoms: _123  and  _124
REMARK   51  A    between atoms: _129  and  _131
REMARK   52  A    between atoms: _131  and  _132
REMARK   53  A    between atoms: _131  and  _134
REMARK   54  A    between atoms: _134  and  _135
REMARK   55  A    between atoms: _140  and  _141
REMARK   56  A    between atoms: _143  and  _145
REMARK   57  A    between atoms: _145  and  _146
REMARK   58  A    between atoms: _145  and  _148
REMARK   59  A    between atoms: _148  and  _149
REMARK   60  A    between atoms: _154  and  _155
REMARK   61  A    between atoms: _157  and  _159
REMARK   62  A    between atoms: _159  and  _160
REMARK   63  A    between atoms: _159  and  _162
REMARK   64  A    between atoms: _162  and  _163
REMARK   65  A    between atoms: _168  and  _169
REMARK   66  A    between atoms: _171  and  _173
REMARK   67  A    between atoms: _173  and  _174
REMARK   68  A    between atoms: _173  and  _176
REMARK   69  A    between atoms: _179  and  _181
REMARK   70  A    between atoms: _181  and  _182
REMARK   71  A    between atoms: _181  and  _184
REMARK   72  A    between atoms: _184  and  _185
REMARK   73  A    between atoms: _191  and  _192
REMARK   74  A    between atoms: _197  and  _199
REMARK   75  A    between atoms: _199  and  _200
REMARK   76  A    between atoms: _199  and  _202
REMARK   77  A    between atoms: _202  and  _203
REMARK   78  A    between atoms: _205  and  _207
REMARK   79  A    between atoms: _207  and  _208
REMARK   80  A    between atoms: _207  and  _210
REMARK   81  A    between atoms: _210  and  _211
REMARK   82  A    between atoms: _216  and  _217
REMARK   83  A    between atoms: _219  and  _221
REMARK   84  A    between atoms: _221  and  _222
REMARK   85  A    between atoms: _221  and  _224
REMARK   86  A    between atoms: _224  and  _225
REMARK   87  A    between atoms: _230  and  _232
REMARK   88  A    between atoms: _232  and  _233
REMARK   89  A    between atoms: _232  and  _235
REMARK   90  A    between atoms: _235  and  _236
REMARK   91  A    between atoms: _241  and  _243
REMARK   92  A    between atoms: _243  and  _244
REMARK   93  A    between atoms: _243  and  _246
REMARK   94  A    between atoms: _246  and  _247
REMARK   95  A    between atoms: _247  and  _248
REMARK   96  A    between atoms: _250  and  _252
REMARK   97  A    between atoms: _252  and  _253
REMARK   98  A    between atoms: _252  and  _255
REMARK   99  A    between atoms: _255  and  _256
REMARK  100  A    between atoms: _261  and  _262
REMARK  101  A    between atoms: _264  and  _266
REMARK  102  A    between atoms: _266  and  _267
REMARK  103  A    between atoms: _266  and  _269
REMARK  104  A    between atoms: _269  and  _270
REMARK  105  A    between atoms: _273  and  _275
REMARK  106  A    between atoms: _275  and  _276
REMARK  107  A    between atoms: _275  and  _278
REMARK  108  A    between atoms: _278  and  _279
REMARK  109  A    between atoms: _279  and  _496
REMARK  110  A    between atoms: _280  and  _282
REMARK  111  A    between atoms: _282  and  _283
REMARK  112  A    between atoms: _282  and  _285
REMARK  113  A    between atoms: _285  and  _286
REMARK  114  A    between atoms: _289  and  _291
REMARK  115  A    between atoms: _291  and  _292
REMARK  116  A    between atoms: _291  and  _294
REMARK  117  A    between atoms: _294  and  _295
REMARK  118  A    between atoms: _300  and  _301
REMARK  119  A    between atoms: _303  and  _305
REMARK  120  A    between atoms: _305  and  _306
REMARK  121  A    between atoms: _305  and  _308
REMARK  122  A    between atoms: _308  and  _309
REMARK  123  A    between atoms: _314  and  _315
REMARK  124  A    between atoms: _317  and  _319
REMARK  125  A    between atoms: _319  and  _320
REMARK  126  A    between atoms: _319  and  _322
REMARK  127  A    between atoms: _322  and  _323
REMARK  128  A    between atoms: _323  and  _324
REMARK  129  A    between atoms: _327  and  _329
REMARK  130  A    between atoms: _329  and  _330
REMARK  131  A    between atoms: _329  and  _332
REMARK  132  A    between atoms: _332  and  _333
REMARK  133  A    between atoms: _338  and  _339
REMARK  134  A    between atoms: _341  and  _343
REMARK  135  A    between atoms: _343  and  _344
REMARK  136  A    between atoms: _343  and  _346
REMARK  137  A    between atoms: _346  and  _347
REMARK  138  A    between atoms: _352  and  _354
REMARK  139  A    between atoms: _354  and  _355
REMARK  140  A    between atoms: _354  and  _357
REMARK  141  A    between atoms: _357  and  _358
REMARK  142  A    between atoms: _361  and  _363
REMARK  143  A    between atoms: _363  and  _364
REMARK  144  A    between atoms: _363  and  _366
REMARK  145  A    between atoms: _366  and  _367
REMARK  146  A    between atoms: _372  and  _374
REMARK  147  A    between atoms: _374  and  _375
REMARK  148  A    between atoms: _374  and  _377
REMARK  149  A    between atoms: _377  and  _378
REMARK  150  A    between atoms: _388  and  _390
REMARK  151  A    between atoms: _390  and  _391
REMARK  152  A    between atoms: _390  and  _393
REMARK  153  A    between atoms: _393  and  _394
REMARK  154  A    between atoms: _400  and  _402
REMARK  155  A    between atoms: _402  and  _403
REMARK  156  A    between atoms: _402  and  _405
REMARK  157  A    between atoms: _405  and  _406
REMARK  158  A    between atoms: _409  and  _411
REMARK  159  A    between atoms: _411  and  _412
REMARK  160  A    between atoms: _411  and  _414
REMARK  161  A    between atoms: _414  and  _415
REMARK  162  A    between atoms: _418  and  _420
REMARK  163  A    between atoms: _420  and  _421
REMARK  164  A    between atoms: _420  and  _423
REMARK  165  A    between atoms: _423  and  _424
REMARK  166  A    between atoms: _424  and  _425
REMARK  167  A    between atoms: _425  and  _426
REMARK  168  A    between atoms: _435  and  _437
REMARK  169  A    between atoms: _437  and  _438
REMARK  170  A    between atoms: _437  and  _440
REMARK  171  A    between atoms: _440  and  _441
REMARK  172  A    between atoms: _446  and  _448
REMARK  173  A    between atoms: _448  and  _449
REMARK  174  A    between atoms: _448  and  _451
REMARK  175  A    between atoms: _451  and  _452
REMARK  176  A    between atoms: _452  and  _453
REMARK  177  A    between atoms: _453  and  _454
REMARK  178  A    between atoms: _463  and  _465
REMARK  179  A    between atoms: _465  and  _466
REMARK  180  A    between atoms: _469  and  _471
REMARK  181  A    between atoms: _471  and  _472
REMARK  182  A    between atoms: _474  and  _476
REMARK  183  A    between atoms: _476  and  _477
REMARK  184  A    between atoms: _476  and  _479
REMARK  185  A    between atoms: _479  and  _480
REMARK  186  A    between atoms: _490  and  _492
REMARK  187  A    between atoms: _492  and  _493
REMARK  188  A    between atoms: _492  and  _495
REMARK  189  A    between atoms: _495  and  _496
REMARK  190  A    between atoms: _497  and  _499
REMARK  191  A    between atoms: _499  and  _500
REMARK  192  A    between atoms: _503  and  _505
REMARK  193  A    between atoms: _505  and  _506
REMARK  194  A    between atoms: _505  and  _508
REMARK  195  A    between atoms: _508  and  _509
REMARK  196  A    between atoms: _512  and  _514
REMARK  197  A    between atoms: _514  and  _515
REMARK  198  A    between atoms: _514  and  _517
REMARK  199  A    between atoms: _517  and  _518
REMARK  200  A    between atoms: _523  and  _524
REMARK  201  A    between atoms: _526  and  _528
REMARK  202  A    between atoms: _528  and  _529
REMARK  203  A    between atoms: _528  and  _531
REMARK  204  A    between atoms: _531  and  _532
REMARK  205  A    between atoms: _534  and  _536
REMARK  206  A    between atoms: _536  and  _537
REMARK  207  A    between atoms: _536  and  _539
REMARK  208  A    between atoms: _539  and  _540
REMARK  209  A    between atoms: _546  and  _548
REMARK  210  A    between atoms: _548  and  _549
REMARK  211  A    between atoms: _548  and  _551
REMARK  212  A    between atoms: _551  and  _552
REMARK  213  A    between atoms: _555  and  _557
REMARK  214  A    between atoms: _557  and  _558
REMARK  215  A    between atoms: _557  and  _560
REMARK  216  A    between atoms: _560  and  _561
REMARK  217  A    between atoms: _563  and  _565
REMARK  218  A    between atoms: _565  and  _566
REMARK  219  A    between atoms: _565  and  _568
REMARK  220  A    between atoms: _568  and  _569
REMARK  221  A    between atoms: _574  and  _576
REMARK  222  A    between atoms: _576  and  _577
REMARK  223  A    between atoms: _576  and  _579
REMARK  224  A    between atoms: _579  and  _580
REMARK  225  A    between atoms: _585  and  _587
REMARK  226  A    between atoms: _587  and  _588
REMARK  227  A    between atoms: _587  and  _590
REMARK  228  A    between atoms: _590  and  _591
REMARK  229  A    between atoms: _594  and  _596
REMARK  230  A    between atoms: _596  and  _597
REMARK  231  A    between atoms: _600  and  _602
REMARK  232  A    between atoms: _602  and  _603
REMARK  233  A    between atoms: _602  and  _605
REMARK  234  A    between atoms: _605  and  _606
REMARK  235  A    between atoms: _611  and  _612
REMARK  236  A    between atoms: _614  and  _616
REMARK  237  A    between atoms: _616  and  _617
REMARK  238  A    between atoms: _616  and  _619
REMARK  239  A    between atoms: _619  and  _620
REMARK  240  A    between atoms: _625  and  _626
REMARK  241  A    between atoms: _628  and  _630
REMARK  242  A    between atoms: _630  and  _631
REMARK  243  A    between atoms: _630  and  _633
REMARK  244  A    between atoms: _636  and  _638
REMARK  245  A    between atoms: _638  and  _639
REMARK  246  A    between atoms: _638  and  _641
REMARK  247  A    between atoms: _641  and  _642
REMARK  248  A    between atoms: _647  and  _649
REMARK  249  A    between atoms: _649  and  _650
REMARK  250  A    between atoms: _653  and  _655
REMARK  251  A    between atoms: _655  and  _656
REMARK  252  A    between atoms: _655  and  _658
REMARK  253  A    between atoms: _658  and  _659
REMARK  254  A    between atoms: _659  and  _660
REMARK  255  A    between atoms: _660  and  _661
REMARK  256  A    between atoms: _670  and  _672
REMARK  257  A    between atoms: _672  and  _673
REMARK  258  A    between atoms: _672  and  _675
REMARK  259  A    between atoms: _675  and  _676
REMARK  260  A    between atoms: _679  and  _681
REMARK  261  A    between atoms: _681  and  _682
REMARK  262  A    between atoms: _681  and  _684
REMARK  263  A    between atoms: _684  and  _685
REMARK  264  A    between atoms: _688  and  _690
REMARK  265  A    between atoms: _690  and  _691
REMARK  266  A    between atoms: _690  and  _693
REMARK  267  A    between atoms: _693  and  _694
REMARK  268  A    between atoms: _724  and  _725
REMARK  269  A    between atoms: _725  and  _731
REMARK                            x       y       z     vdW  Elec       q    Type
REMARK                         _______ _______ _______ _____ _____    ______ ____
ROOT
ATOM      1  CA  ASN A   3      11.157  21.811  24.498  0.00  0.00    +0.158 C 
ENDROOT
BRANCH   1   3
ATOM      2  C   ASN A   2      11.005  21.614  22.088  0.00  0.00    +0.241 C 
ATOM      3  N   ASN A   3      11.762  21.842  23.157  0.00  0.00    -0.297 N 
ATOM      4  H   ASN A   3      12.777  22.041  23.046  0.00  0.00    +0.150 HD
ATOM      5  O   ASN A   2       9.779  21.455  22.135  0.00  0.00    -0.273 OA
BRANCH   2   6
ATOM      6  CA  ASN A   2      11.687  21.509  20.717  0.00  0.00    +0.158 C 
BRANCH   6   8
ATOM      7  C   SER A   1      13.699  22.923  20.663  0.00  0.00    +0.241 C 
ATOM      8  N   ASN A   2      13.120  21.736  20.802  0.00  0.00    -0.297 N 
ATOM      9  H   ASN A   2      13.732  20.915  20.984  0.00  0.00    +0.150 HD
ATOM     10  O   SER A   1      12.976  23.900  20.413  0.00  0.00    -0.274 OA
BRANCH   7  11
ATOM     11  CA  SER A   1      15.219  23.061  20.822  0.00  0.00    +0.174 C 
BRANCH  11  12
ATOM     12  N   SER A   1      15.797  21.928  21.522  0.00  0.00    -0.236 NA
ATOM     13  H   SER A   1      16.465  21.304  21.027  0.00  0.00    +0.142 HD
ENDBRANCH  11  12
BRANCH  11  14
ATOM     14  CB  SER A   1      15.891  23.239  19.458  0.00  0.00    +0.163 C 
BRANCH  14  15
ATOM     15  OG  SER A   1      15.607  22.249  18.471  0.00  0.00    -0.380 OA
ATOM     16  H   SER A   1      14.633  22.233  18.292  0.00  0.00    +0.211 HD
ENDBRANCH  14  15
ENDBRANCH  11  14
ENDBRANCH   7  11
ENDBRANCH   6   8
BRANCH   6  17
ATOM     17  CB  ASN A   2      11.407  20.071  20.237  0.00  0.00    +0.114 C 
BRANCH  17  18
ATOM     18  CG  ASN A   2      11.884  19.739  18.820  0.00  0.00    +0.222 C 
ATOM     19  OD1 ASN A   2      12.479  18.675  18.555  0.00  0.00    -0.275 OA
ATOM     20  ND2 ASN A   2      11.591  20.604  17.857  0.00  0.00    -0.329 N 
ATOM     21 HD21 ASN A   2      11.095  21.489  18.086  0.00  0.00    +0.145 HD
ATOM     22 HD22 ASN A   2      11.858  20.397  16.873  0.00  0.00    +0.145 HD
ENDBRANCH  17  18
ENDBRANCH   6  17
ENDBRANCH   2   6
ENDBRANCH   1   3
BRANCH   1  23
ATOM     23  C   ASN A   3      10.425  23.109  24.855  0.00  0.00    +0.241 C 
ATOM     24  O   ASN A   3      11.013  23.959  25.532  0.00  0.00    -0.273 OA
ATOM     25  N   THR A   4       9.164  23.217  24.458  0.00  0.00    -0.295 N 
ATOM     26  H   THR A   4       8.728  22.439  23.923  0.00  0.00    +0.150 HD
BRANCH  25  27
ATOM     27  CA  THR A   4       8.375  24.413  24.760  0.00  0.00    +0.176 C 
BRANCH  27  28
ATOM     28  C   THR A   4       7.624  24.212  26.065  0.00  0.00    +0.243 C 
ATOM     29  N   ALA A   5       7.707  23.015  26.682  0.00  0.00    -0.298 N 
ATOM     30  H   ALA A   5       8.138  22.204  26.194  0.00  0.00    +0.150 HD
ATOM     31  O   THR A   4       7.049  25.159  26.636  0.00  0.00    -0.273 OA
BRANCH  29  32
ATOM     32  CA  ALA A   5       7.188  22.863  28.039  0.00  0.00    +0.137 C 
ATOM     33  CB  ALA A   5       6.972  21.394  28.448  0.00  0.00    +0.030 C 
BRANCH  32  34
ATOM     34  C   ALA A   5       8.160  23.552  29.006  0.00  0.00    +0.227 C 
ATOM     35  O   ALA A   5       7.857  23.830  30.182  0.00  0.00    -0.286 OA
ENDBRANCH  32  34
ENDBRANCH  29  32
ENDBRANCH  27  28
BRANCH  27  36
ATOM     36  CB  THR A   4       7.465  24.764  23.565  0.00  0.00    +0.137 C 
ATOM     37  CG2 THR A   4       8.293  25.265  22.386  0.00  0.00    +0.034 C 
BRANCH  36  38
ATOM     38  OG1 THR A   4       6.767  23.584  23.139  0.00  0.00    -0.382 OA
ATOM     39  HG1 THR A   4       6.216  23.240  23.886  0.00  0.00    +0.210 HD
ENDBRANCH  36  38
ENDBRANCH  27  36
ENDBRANCH  25  27
ENDBRANCH   1  23
BRANCH   1  40
ATOM     40  CB  ASN A   3      12.242  21.445  25.502  0.00  0.00    +0.114 C 
BRANCH  40  41
ATOM     41  CG  ASN A   3      11.796  21.093  26.908  0.00  0.00    +0.222 C 
ATOM     42  ND2 ASN A   3      12.576  20.274  27.583  0.00  0.00    -0.329 N 
ATOM     43 HD21 ASN A   3      12.300  19.960  28.535  0.00  0.00    +0.145 HD
ATOM     44 HD22 ASN A   3      13.468  19.942  27.164  0.00  0.00    +0.145 HD
ATOM     45  OD1 ASN A   3      10.747  21.476  27.417  0.00  0.00    -0.275 OA
ENDBRANCH  40  41
ENDBRANCH   1  40
TORSDOF 18
REMARK  Name = ../refined-set-2016/1b3h/1b3h_pocket.pdb
REMARK  269 active torsions:
REMARK  status: ('A' for Active; 'I' for Inactive)
REMARK    1  A    between atoms: _1  and  _3
REMARK    2  A    between atoms: _3  and  _4
REMARK    3  A    between atoms: _3  and  _6
REMARK    4  A    between atoms: _6  and  _7
REMARK    5  A    between atoms: _12  and  _14
REMARK    6  A    between atoms: _14  and  _15
REMARK    7  A    between atoms: _17  and  _19
REMARK    8  A    between atoms: _19  and  _20
REMARK    9  A    between atoms: _19  and  _22
REMARK   10  A    between atoms: _22  and  _23
REMARK   11  A    between atoms: _25  and  _27
REMARK   12  A    between atoms: _27  and  _28
REMARK   13  A    between atoms: _27  and  _30
REMARK   14  A    between atoms: _30  and  _31
REMARK   15  A    between atoms: _31  and  _32
REMARK   16  A    between atoms: _37  and  _39
REMARK   17  A    between atoms: _39  and  _40
REMARK   18  A    between atoms: _39  and  _42
REMARK   19  A    between atoms: _42  and  _43
REMARK   20  A    between atoms: _46  and  _48
REMARK   21  A    between atoms: _48  and  _49
REMARK   22  A    between atoms: _48  and  _51
REMARK   23  A    between atoms: _51  and  _52
REMARK   24  A    between atoms: _52  and  _53
REMARK   25  A    between atoms: _56  and  _58
REMARK   26  A    between atoms: _58  and  _59
REMARK   27  A    between atoms: _61  and  _63
REMARK   28  A    between atoms: _63  and  _64
REMARK   29  A    between atoms: _63  and  _66
REMARK   30  A    between atoms: _70  and  _71
REMARK   31  A    between atoms: _76  and  _78
REMARK   32  A    between atoms: _78  and  _79
REMARK   33  A    between atoms: _78  and  _81
REMARK   34  A    between atoms: _81  and  _82
REMARK   35  A    between atoms: _82  and  _83
REMARK   36  A    between atoms: _86  and  _88
REMARK   37  A    between atoms: _88  and  _89
REMARK   38  A    between atoms: _88  and  _91
REMARK   39  A    between atoms: _91  and  _92
REMARK   40  A    between atoms: _94  and  _96
REMARK   41  A    between atoms: _96  and  _97
REMARK   42  A    between atoms: _96  and  _99
REMARK   43  A    between atoms: _99  and  _100
REMARK   44  A    between atoms: _105  and  _107
REMARK   45  A    between atoms: _107  and  _108
REMARK   46  A    between atoms: _107  and  _110
REMARK   47  A    between atoms: _110  and  _111
REMARK   48  A    between atoms: _111  and  _112
REMARK   49  A    between atoms: _112  and  _113
REMARK   50  A    between atoms: _123  and  _124
REMARK   51  A    between atoms: _129  and  _131
REMARK   52  A    between atoms: _131  and  _132
REMARK   53  A    between atoms: _131  and  _134
REMARK   54  A    between atoms: _134  and  _135
REMARK   55  A    between atoms: _140  and  _141
REMARK   56  A    between atoms: _143  and  _145
REMARK   57  A    between atoms: _145  and  _146
REMARK   58  A    between atoms: _145  and  _148
REMARK   59  A    between atoms: _148  and  _149
REMARK   60  A    between atoms: _154  and  _155
REMARK   61  A    between atoms: _157  and  _159
REMARK   62  A    between atoms: _159  and  _160
REMARK   63  A    between atoms: _159  and  _162
REMARK   64  A    between atoms: _162  and  _163
REMARK   65  A    between atoms: _168  and  _169
REMARK   66  A    between atoms: _171  and  _173
REMARK   67  A    between atoms: _173  and  _174
REMARK   68  A    between atoms: _173  and  _176
REMARK   69  A    between atoms: _179  and  _181
REMARK   70  A    between atoms: _181  and  _182
REMARK   71  A    between atoms: _181  and  _184
REMARK   72  A    between atoms: _184  and  _185
REMARK   73  A    between atoms: _191  and  _192
REMARK   74  A    between atoms: _197  and  _199
REMARK   75  A    between atoms: _199  and  _200
REMARK   76  A    between atoms: _199  and  _202
REMARK   77  A    between atoms: _202  and  _203
REMARK   78  A    between atoms: _205  and  _207
REMARK   79  A    between atoms: _207  and  _208
REMARK   80  A    between atoms: _207  and  _210
REMARK   81  A    between atoms: _210  and  _211
REMARK   82  A    between atoms: _216  and  _217
REMARK   83  A    between atoms: _219  and  _221
REMARK   84  A    between atoms: _221  and  _222
REMARK   85  A    between atoms: _221  and  _224
REMARK   86  A    between atoms: _224  and  _225
REMARK   87  A    between atoms: _230  and  _232
REMARK   88  A    between atoms: _232  and  _233
REMARK   89  A    between atoms: _232  and  _235
REMARK   90  A    between atoms: _235  and  _236
REMARK   91  A    between atoms: _241  and  _243
REMARK   92  A    between atoms: _243  and  _244
REMARK   93  A    between atoms: _243  and  _246
REMARK   94  A    between atoms: _246  and  _247
REMARK   95  A    between atoms: _247  and  _248
REMARK   96  A    between atoms: _250  and  _252
REMARK   97  A    between atoms: _252  and  _253
REMARK   98  A    between atoms: _252  and  _255
REMARK   99  A    between atoms: _255  and  _256
REMARK  100  A    between atoms: _261  and  _262
REMARK  101  A    between atoms: _264  and  _266
REMARK  102  A    between atoms: _266  and  _267
REMARK  103  A    between atoms: _266  and  _269
REMARK  104  A    between atoms: _269  and  _270
REMARK  105  A    between atoms: _273  and  _275
REMARK  106  A    between atoms: _275  and  _276
REMARK  107  A    between atoms: _275  and  _278
REMARK  108  A    between atoms: _278  and  _279
REMARK  109  A    between atoms: _279  and  _496
REMARK  110  A    between atoms: _280  and  _282
REMARK  111  A    between atoms: _282  and  _283
REMARK  112  A    between atoms: _282  and  _285
REMARK  113  A    between atoms: _285  and  _286
REMARK  114  A    between atoms: _289  and  _291
REMARK  115  A    between atoms: _291  and  _292
REMARK  116  A    between atoms: _291  and  _294
REMARK  117  A    between atoms: _294  and  _295
REMARK  118  A    between atoms: _300  and  _301
REMARK  119  A    between atoms: _303  and  _305
REMARK  120  A    between atoms: _305  and  _306
REMARK  121  A    between atoms: _305  and  _308
REMARK  122  A    between atoms: _308  and  _309
REMARK  123  A    between atoms: _314  and  _315
REMARK  124  A    between atoms: _317  and  _319
REMARK  125  A    between atoms: _319  and  _320
REMARK  126  A    between atoms: _319  and  _322
REMARK  127  A    between atoms: _322  and  _323
REMARK  128  A    between atoms: _323  and  _324
REMARK  129  A    between atoms: _327  and  _329
REMARK  130  A    between atoms: _329  and  _330
REMARK  131  A    between atoms: _329  and  _332
REMARK  132  A    between atoms: _332  and  _333
REMARK  133  A    between atoms: _338  and  _339
REMARK  134  A    between atoms: _341  and  _343
REMARK  135  A    between atoms: _343  and  _344
REMARK  136  A    between atoms: _343  and  _346
REMARK  137  A    between atoms: _346  and  _347
REMARK  138  A    between atoms: _352  and  _354
REMARK  139  A    between atoms: _354  and  _355
REMARK  140  A    between atoms: _354  and  _357
REMARK  141  A    between atoms: _357  and  _358
REMARK  142  A    between atoms: _361  and  _363
REMARK  143  A    between atoms: _363  and  _364
REMARK  144  A    between atoms: _363  and  _366
REMARK  145  A    between atoms: _366  and  _367
REMARK  146  A    between atoms: _372  and  _374
REMARK  147  A    between atoms: _374  and  _375
REMARK  148  A    between atoms: _374  and  _377
REMARK  149  A    between atoms: _377  and  _378
REMARK  150  A    between atoms: _388  and  _390
REMARK  151  A    between atoms: _390  and  _391
REMARK  152  A    between atoms: _390  and  _393
REMARK  153  A    between atoms: _393  and  _394
REMARK  154  A    between atoms: _400  and  _402
REMARK  155  A    between atoms: _402  and  _403
REMARK  156  A    between atoms: _402  and  _405
REMARK  157  A    between atoms: _405  and  _406
REMARK  158  A    between atoms: _409  and  _411
REMARK  159  A    between atoms: _411  and  _412
REMARK  160  A    between atoms: _411  and  _414
REMARK  161  A    between atoms: _414  and  _415
REMARK  162  A    between atoms: _418  and  _420
REMARK  163  A    between atoms: _420  and  _421
REMARK  164  A    between atoms: _420  and  _423
REMARK  165  A    between atoms: _423  and  _424
REMARK  166  A    between atoms: _424  and  _425
REMARK  167  A    between atoms: _425  and  _426
REMARK  168  A    between atoms: _435  and  _437
REMARK  169  A    between atoms: _437  and  _438
REMARK  170  A    between atoms: _437  and  _440
REMARK  171  A    between atoms: _440  and  _441
REMARK  172  A    between atoms: _446  and  _448
REMARK  173  A    between atoms: _448  and  _449
REMARK  174  A    between atoms: _448  and  _451
REMARK  175  A    between atoms: _451  and  _452
REMARK  176  A    between atoms: _452  and  _453
REMARK  177  A    between atoms: _453  and  _454
REMARK  178  A    between atoms: _463  and  _465
REMARK  179  A    between atoms: _465  and  _466
REMARK  180  A    between atoms: _469  and  _471
REMARK  181  A    between atoms: _471  and  _472
REMARK  182  A    between atoms: _474  and  _476
REMARK  183  A    between atoms: _476  and  _477
REMARK  184  A    between atoms: _476  and  _479
REMARK  185  A    between atoms: _479  and  _480
REMARK  186  A    between atoms: _490  and  _492
REMARK  187  A    between atoms: _492  and  _493
REMARK  188  A    between atoms: _492  and  _495
REMARK  189  A    between atoms: _495  and  _496
REMARK  190  A    between atoms: _497  and  _499
REMARK  191  A    between atoms: _499  and  _500
REMARK  192  A    between atoms: _503  and  _505
REMARK  193  A    between atoms: _505  and  _506
REMARK  194  A    between atoms: _505  and  _508
REMARK  195  A    between atoms: _508  and  _509
REMARK  196  A    between atoms: _512  and  _514
REMARK  197  A    between atoms: _514  and  _515
REMARK  198  A    between atoms: _514  and  _517
REMARK  199  A    between atoms: _517  and  _518
REMARK  200  A    between atoms: _523  and  _524
REMARK  201  A    between atoms: _526  and  _528
REMARK  202  A    between atoms: _528  and  _529
REMARK  203  A    between atoms: _528  and  _531
REMARK  204  A    between atoms: _531  and  _532
REMARK  205  A    between atoms: _534  and  _536
REMARK  206  A    between atoms: _536  and  _537
REMARK  207  A    between atoms: _536  and  _539
REMARK  208  A    between atoms: _539  and  _540
REMARK  209  A    between atoms: _546  and  _548
REMARK  210  A    between atoms: _548  and  _549
REMARK  211  A    between atoms: _548  and  _551
REMARK  212  A    between atoms: _551  and  _552
REMARK  213  A    between atoms: _555  and  _557
REMARK  214  A    between atoms: _557  and  _558
REMARK  215  A    between atoms: _557  and  _560
REMARK  216  A    between atoms: _560  and  _561
REMARK  217  A    between atoms: _563  and  _565
REMARK  218  A    between atoms: _565  and  _566
REMARK  219  A    between atoms: _565  and  _568
REMARK  220  A    between atoms: _568  and  _569
REMARK  221  A    between atoms: _574  and  _576
REMARK  222  A    between atoms: _576  and  _577
REMARK  223  A    between atoms: _576  and  _579
REMARK  224  A    between atoms: _579  and  _580
REMARK  225  A    between atoms: _585  and  _587
REMARK  226  A    between atoms: _587  and  _588
REMARK  227  A    between atoms: _587  and  _590
REMARK  228  A    between atoms: _590  and  _591
REMARK  229  A    between atoms: _594  and  _596
REMARK  230  A    between atoms: _596  and  _597
REMARK  231  A    between atoms: _600  and  _602
REMARK  232  A    between atoms: _602  and  _603
REMARK  233  A    between atoms: _602  and  _605
REMARK  234  A    between atoms: _605  and  _606
REMARK  235  A    between atoms: _611  and  _612
REMARK  236  A    between atoms: _614  and  _616
REMARK  237  A    between atoms: _616  and  _617
REMARK  238  A    between atoms: _616  and  _619
REMARK  239  A    between atoms: _619  and  _620
REMARK  240  A    between atoms: _625  and  _626
REMARK  241  A    between atoms: _628  and  _630
REMARK  242  A    between atoms: _630  and  _631
REMARK  243  A    between atoms: _630  and  _633
REMARK  244  A    between atoms: _636  and  _638
REMARK  245  A    between atoms: _638  and  _639
REMARK  246  A    between atoms: _638  and  _641
REMARK  247  A    between atoms: _641  and  _642
REMARK  248  A    between atoms: _647  and  _649
REMARK  249  A    between atoms: _649  and  _650
REMARK  250  A    between atoms: _653  and  _655
REMARK  251  A    between atoms: _655  and  _656
REMARK  252  A    between atoms: _655  and  _658
REMARK  253  A    between atoms: _658  and  _659
REMARK  254  A    between atoms: _659  and  _660
REMARK  255  A    between atoms: _660  and  _661
REMARK  256  A    between atoms: _670  and  _672
REMARK  257  A    between atoms: _672  and  _673
REMARK  258  A    between atoms: _672  and  _675
REMARK  259  A    between atoms: _675  and  _676
REMARK  260  A    between atoms: _679  and  _681
REMARK  261  A    between atoms: _681  and  _682
REMARK  262  A    between atoms: _681  and  _684
REMARK  263  A    between atoms: _684  and  _685
REMARK  264  A    between atoms: _688  and  _690
REMARK  265  A    between atoms: _690  and  _691
REMARK  266  A    between atoms: _690  and  _693
REMARK  267  A    between atoms: _693  and  _694
REMARK  268  A    between atoms: _724  and  _725
REMARK  269  A    between atoms: _725  and  _731
REMARK                            x       y       z     vdW  Elec       q    Type
REMARK                         _______ _______ _______ _____ _____    ______ ____
ROOT
ATOM      1  CG  TYR A   1      -7.480  13.276  22.259  0.00  0.00    -0.020 A 
ATOM      2  CD2 TYR A   1      -8.161  14.445  22.588  0.00  0.00    -0.001 A 
ATOM      3  CE2 TYR A   1      -8.350  15.481  21.689  0.00  0.00    +0.036 A 
ATOM      4  CZ  TYR A   1      -7.847  15.328  20.413  0.00  0.00    +0.134 A 
ATOM      5  CE1 TYR A   1      -7.171  14.190  20.043  0.00  0.00    +0.036 A 
ATOM      6  CD1 TYR A   1      -6.984  13.178  20.977  0.00  0.00    -0.001 A 
ENDROOT
BRANCH   4   7
ATOM      7  OH  TYR A   1      -8.019  16.323  19.477  0.00  0.00    -0.506 OA
ATOM      8  HH  TYR A   1      -7.598  16.048  18.624  0.00  0.00    +0.292 HD
ENDBRANCH   4   7
BRANCH   1   9
ATOM      9  CB  TYR A   1      -7.309  12.177  23.275  0.00  0.00    +0.051 C 
BRANCH   9  10
ATOM     10  CA  TYR A   1      -5.970  12.048  23.983  0.00  0.00    +0.137 C 
BRANCH  10  11
ATOM     11  N   TYR A   1      -5.588  13.224  24.754  0.00  0.00    -0.239 NA
ATOM     12  H   TYR A   1      -4.976  13.950  24.329  0.00  0.00    +0.142 HD
ENDBRANCH  10  11
BRANCH  10  13
ATOM     13  C   TYR A   1      -4.885  11.740  22.945  0.00  0.00    +0.224 C 
ATOM     14  O   TYR A   1      -4.122  12.644  22.646  0.00  0.00    -0.287 OA
ENDBRANCH  10  13
ENDBRANCH   9  10
ENDBRANCH   1   9
TORSDOF 5
REMARK  Name = ../refined-set-2016/1b3h/1b3h_pocket.pdb
REMARK  269 active torsions:
REMARK  status: ('A' for Active; 'I' for Inactive)
REMARK    1  A    between atoms: _1  and  _3
REMARK    2  A    between atoms: _3  and  _4
REMARK    3  A    between atoms: _3  and  _6
REMARK    4  A    between atoms: _6  and  _7
REMARK    5  A    between atoms: _12  and  _14
REMARK    6  A    between atoms: _14  and  _15
REMARK    7  A    between atoms: _17  and  _19
REMARK    8  A    between atoms: _19  and  _20
REMARK    9  A    between atoms: _19  and  _22
REMARK   10  A    between atoms: _22  and  _23
REMARK   11  A    between atoms: _25  and  _27
REMARK   12  A    between atoms: _27  and  _28
REMARK   13  A    between atoms: _27  and  _30
REMARK   14  A    between atoms: _30  and  _31
REMARK   15  A    between atoms: _31  and  _32
REMARK   16  A    between atoms: _37  and  _39
REMARK   17  A    between atoms: _39  and  _40
REMARK   18  A    between atoms: _39  and  _42
REMARK   19  A    between atoms: _42  and  _43
REMARK   20  A    between atoms: _46  and  _48
REMARK   21  A    between atoms: _48  and  _49
REMARK   22  A    between atoms: _48  and  _51
REMARK   23  A    between atoms: _51  and  _52
REMARK   24  A    between atoms: _52  and  _53
REMARK   25  A    between atoms: _56  and  _58
REMARK   26  A    between atoms: _58  and  _59
REMARK   27  A    between atoms: _61  and  _63
REMARK   28  A    between atoms: _63  and  _64
REMARK   29  A    between atoms: _63  and  _66
REMARK   30  A    between atoms: _70  and  _71
REMARK   31  A    between atoms: _76  and  _78
REMARK   32  A    between atoms: _78  and  _79
REMARK   33  A    between atoms: _78  and  _81
REMARK   34  A    between atoms: _81  and  _82
REMARK   35  A    between atoms: _82  and  _83
REMARK   36  A    between atoms: _86  and  _88
REMARK   37  A    between atoms: _88  and  _89
REMARK   38  A    between atoms: _88  and  _91
REMARK   39  A    between atoms: _91  and  _92
REMARK   40  A    between atoms: _94  and  _96
REMARK   41  A    between atoms: _96  and  _97
REMARK   42  A    between atoms: _96  and  _99
REMARK   43  A    between atoms: _99  and  _100
REMARK   44  A    between atoms: _105  and  _107
REMARK   45  A    between atoms: _107  and  _108
REMARK   46  A    between atoms: _107  and  _110
REMARK   47  A    between atoms: _110  and  _111
REMARK   48  A    between atoms: _111  and  _112
REMARK   49  A    between atoms: _112  and  _113
REMARK   50  A    between atoms: _123  and  _124
REMARK   51  A    between atoms: _129  and  _131
REMARK   52  A    between atoms: _131  and  _132
REMARK   53  A    between atoms: _131  and  _134
REMARK   54  A    between atoms: _134  and  _135
REMARK   55  A    between atoms: _140  and  _141
REMARK   56  A    between atoms: _143  and  _145
REMARK   57  A    between atoms: _145  and  _146
REMARK   58  A    between atoms: _145  and  _148
REMARK   59  A    between atoms: _148  and  _149
REMARK   60  A    between atoms: _154  and  _155
REMARK   61  A    between atoms: _157  and  _159
REMARK   62  A    between atoms: _159  and  _160
REMARK   63  A    between atoms: _159  and  _162
REMARK   64  A    between atoms: _162  and  _163
REMARK   65  A    between atoms: _168  and  _169
REMARK   66  A    between atoms: _171  and  _173
REMARK   67  A    between atoms: _173  and  _174
REMARK   68  A    between atoms: _173  and  _176
REMARK   69  A    between atoms: _179  and  _181
REMARK   70  A    between atoms: _181  and  _182
REMARK   71  A    between atoms: _181  and  _184
REMARK   72  A    between atoms: _184  and  _185
REMARK   73  A    between atoms: _191  and  _192
REMARK   74  A    between atoms: _197  and  _199
REMARK   75  A    between atoms: _199  and  _200
REMARK   76  A    between atoms: _199  and  _202
REMARK   77  A    between atoms: _202  and  _203
REMARK   78  A    between atoms: _205  and  _207
REMARK   79  A    between atoms: _207  and  _208
REMARK   80  A    between atoms: _207  and  _210
REMARK   81  A    between atoms: _210  and  _211
REMARK   82  A    between atoms: _216  and  _217
REMARK   83  A    between atoms: _219  and  _221
REMARK   84  A    between atoms: _221  and  _222
REMARK   85  A    between atoms: _221  and  _224
REMARK   86  A    between atoms: _224  and  _225
REMARK   87  A    between atoms: _230  and  _232
REMARK   88  A    between atoms: _232  and  _233
REMARK   89  A    between atoms: _232  and  _235
REMARK   90  A    between atoms: _235  and  _236
REMARK   91  A    between atoms: _241  and  _243
REMARK   92  A    between atoms: _243  and  _244
REMARK   93  A    between atoms: _243  and  _246
REMARK   94  A    between atoms: _246  and  _247
REMARK   95  A    between atoms: _247  and  _248
REMARK   96  A    between atoms: _250  and  _252
REMARK   97  A    between atoms: _252  and  _253
REMARK   98  A    between atoms: _252  and  _255
REMARK   99  A    between atoms: _255  and  _256
REMARK  100  A    between atoms: _261  and  _262
REMARK  101  A    between atoms: _264  and  _266
REMARK  102  A    between atoms: _266  and  _267
REMARK  103  A    between atoms: _266  and  _269
REMARK  104  A    between atoms: _269  and  _270
REMARK  105  A    between atoms: _273  and  _275
REMARK  106  A    between atoms: _275  and  _276
REMARK  107  A    between atoms: _275  and  _278
REMARK  108  A    between atoms: _278  and  _279
REMARK  109  A    between atoms: _279  and  _496
REMARK  110  A    between atoms: _280  and  _282
REMARK  111  A    between atoms: _282  and  _283
REMARK  112  A    between atoms: _282  and  _285
REMARK  113  A    between atoms: _285  and  _286
REMARK  114  A    between atoms: _289  and  _291
REMARK  115  A    between atoms: _291  and  _292
REMARK  116  A    between atoms: _291  and  _294
REMARK  117  A    between atoms: _294  and  _295
REMARK  118  A    between atoms: _300  and  _301
REMARK  119  A    between atoms: _303  and  _305
REMARK  120  A    between atoms: _305  and  _306
REMARK  121  A    between atoms: _305  and  _308
REMARK  122  A    between atoms: _308  and  _309
REMARK  123  A    between atoms: _314  and  _315
REMARK  124  A    between atoms: _317  and  _319
REMARK  125  A    between atoms: _319  and  _320
REMARK  126  A    between atoms: _319  and  _322
REMARK  127  A    between atoms: _322  and  _323
REMARK  128  A    between atoms: _323  and  _324
REMARK  129  A    between atoms: _327  and  _329
REMARK  130  A    between atoms: _329  and  _330
REMARK  131  A    between atoms: _329  and  _332
REMARK  132  A    between atoms: _332  and  _333
REMARK  133  A    between atoms: _338  and  _339
REMARK  134  A    between atoms: _341  and  _343
REMARK  135  A    between atoms: _343  and  _344
REMARK  136  A    between atoms: _343  and  _346
REMARK  137  A    between atoms: _346  and  _347
REMARK  138  A    between atoms: _352  and  _354
REMARK  139  A    between atoms: _354  and  _355
REMARK  140  A    between atoms: _354  and  _357
REMARK  141  A    between atoms: _357  and  _358
REMARK  142  A    between atoms: _361  and  _363
REMARK  143  A    between atoms: _363  and  _364
REMARK  144  A    between atoms: _363  and  _366
REMARK  145  A    between atoms: _366  and  _367
REMARK  146  A    between atoms: _372  and  _374
REMARK  147  A    between atoms: _374  and  _375
REMARK  148  A    between atoms: _374  and  _377
REMARK  149  A    between atoms: _377  and  _378
REMARK  150  A    between atoms: _388  and  _390
REMARK  151  A    between atoms: _390  and  _391
REMARK  152  A    between atoms: _390  and  _393
REMARK  153  A    between atoms: _393  and  _394
REMARK  154  A    between atoms: _400  and  _402
REMARK  155  A    between atoms: _402  and  _403
REMARK  156  A    between atoms: _402  and  _405
REMARK  157  A    between atoms: _405  and  _406
REMARK  158  A    between atoms: _409  and  _411
REMARK  159  A    between atoms: _411  and  _412
REMARK  160  A    between atoms: _411  and  _414
REMARK  161  A    between atoms: _414  and  _415
REMARK  162  A    between atoms: _418  and  _420
REMARK  163  A    between atoms: _420  and  _421
REMARK  164  A    between atoms: _420  and  _423
REMARK  165  A    between atoms: _423  and  _424
REMARK  166  A    between atoms: _424  and  _425
REMARK  167  A    between atoms: _425  and  _426
REMARK  168  A    between atoms: _435  and  _437
REMARK  169  A    between atoms: _437  and  _438
REMARK  170  A    between atoms: _437  and  _440
REMARK  171  A    between atoms: _440  and  _441
REMARK  172  A    between atoms: _446  and  _448
REMARK  173  A    between atoms: _448  and  _449
REMARK  174  A    between atoms: _448  and  _451
REMARK  175  A    between atoms: _451  and  _452
REMARK  176  A    between atoms: _452  and  _453
REMARK  177  A    between atoms: _453  and  _454
REMARK  178  A    between atoms: _463  and  _465
REMARK  179  A    between atoms: _465  and  _466
REMARK  180  A    between atoms: _469  and  _471
REMARK  181  A    between atoms: _471  and  _472
REMARK  182  A    between atoms: _474  and  _476
REMARK  183  A    between atoms: _476  and  _477
REMARK  184  A    between atoms: _476  and  _479
REMARK  185  A    between atoms: _479  and  _480
REMARK  186  A    between atoms: _490  and  _492
REMARK  187  A    between atoms: _492  and  _493
REMARK  188  A    between atoms: _492  and  _495
REMARK  189  A    between atoms: _495  and  _496
REMARK  190  A    between atoms: _497  and  _499
REMARK  191  A    between atoms: _499  and  _500
REMARK  192  A    between atoms: _503  and  _505
REMARK  193  A    between atoms: _505  and  _506
REMARK  194  A    between atoms: _505  and  _508
REMARK  195  A    between atoms: _508  and  _509
REMARK  196  A    between atoms: _512  and  _514
REMARK  197  A    between atoms: _514  and  _515
REMARK  198  A    between atoms: _514  and  _517
REMARK  199  A    between atoms: _517  and  _518
REMARK  200  A    between atoms: _523  and  _524
REMARK  201  A    between atoms: _526  and  _528
REMARK  202  A    between atoms: _528  and  _529
REMARK  203  A    between atoms: _528  and  _531
REMARK  204  A    between atoms: _531  and  _532
REMARK  205  A    between atoms: _534  and  _536
REMARK  206  A    between atoms: _536  and  _537
REMARK  207  A    between atoms: _536  and  _539
REMARK  208  A    between atoms: _539  and  _540
REMARK  209  A    between atoms: _546  and  _548
REMARK  210  A    between atoms: _548  and  _549
REMARK  211  A    between atoms: _548  and  _551
REMARK  212  A    between atoms: _551  and  _552
REMARK  213  A    between atoms: _555  and  _557
REMARK  214  A    between atoms: _557  and  _558
REMARK  215  A    between atoms: _557  and  _560
REMARK  216  A    between atoms: _560  and  _561
REMARK  217  A    between atoms: _563  and  _565
REMARK  218  A    between atoms: _565  and  _566
REMARK  219  A    between atoms: _565  and  _568
REMARK  220  A    between atoms: _568  and  _569
REMARK  221  A    between atoms: _574  and  _576
REMARK  222  A    between atoms: _576  and  _577
REMARK  223  A    between atoms: _576  and  _579
REMARK  224  A    between atoms: _579  and  _580
REMARK  225  A    between atoms: _585  and  _587
REMARK  226  A    between atoms: _587  and  _588
REMARK  227  A    between atoms: _587  and  _590
REMARK  228  A    between atoms: _590  and  _591
REMARK  229  A    between atoms: _594  and  _596
REMARK  230  A    between atoms: _596  and  _597
REMARK  231  A    between atoms: _600  and  _602
REMARK  232  A    between atoms: _602  and  _603
REMARK  233  A    between atoms: _602  and  _605
REMARK  234  A    between atoms: _605  and  _606
REMARK  235  A    between atoms: _611  and  _612
REMARK  236  A    between atoms: _614  and  _616
REMARK  237  A    between atoms: _616  and  _617
REMARK  238  A    between atoms: _616  and  _619
REMARK  239  A    between atoms: _619  and  _620
REMARK  240  A    between atoms: _625  and  _626
REMARK  241  A    between atoms: _628  and  _630
REMARK  242  A    between atoms: _630  and  _631
REMARK  243  A    between atoms: _630  and  _633
REMARK  244  A    between atoms: _636  and  _638
REMARK  245  A    between atoms: _638  and  _639
REMARK  246  A    between atoms: _638  and  _641
REMARK  247  A    between atoms: _641  and  _642
REMARK  248  A    between atoms: _647  and  _649
REMARK  249  A    between atoms: _649  and  _650
REMARK  250  A    between atoms: _653  and  _655
REMARK  251  A    between atoms: _655  and  _656
REMARK  252  A    between atoms: _655  and  _658
REMARK  253  A    between atoms: _658  and  _659
REMARK  254  A    between atoms: _659  and  _660
REMARK  255  A    between atoms: _660  and  _661
REMARK  256  A    between atoms: _670  and  _672
REMARK  257  A    between atoms: _672  and  _673
REMARK  258  A    between atoms: _672  and  _675
REMARK  259  A    between atoms: _675  and  _676
REMARK  260  A    between atoms: _679  and  _681
REMARK  261  A    between atoms: _681  and  _682
REMARK  262  A    between atoms: _681  and  _684
REMARK  263  A    between atoms: _684  and  _685
REMARK  264  A    between atoms: _688  and  _690
REMARK  265  A    between atoms: _690  and  _691
REMARK  266  A    between atoms: _690  and  _693
REMARK  267  A    between atoms: _693  and  _694
REMARK  268  A    between atoms: _724  and  _725
REMARK  269  A    between atoms: _725  and  _731
REMARK                            x       y       z     vdW  Elec       q    Type
REMARK                         _______ _______ _______ _____ _____    ______ ____
ROOT
ATOM      1  CA  ASN A   3      -5.989  10.870  11.667  0.00  0.00    +0.158 C 
ENDROOT
BRANCH   1   4
ATOM      2  C   VAL A   2      -6.539  10.534  14.005  0.00  0.00    +0.241 C 
ATOM      3  O   VAL A   2      -6.678  11.754  14.186  0.00  0.00    -0.273 OA
ATOM      4  N   ASN A   3      -6.180  10.024  12.837  0.00  0.00    -0.297 N 
ATOM      5  H   ASN A   3      -6.031   8.998  12.753  0.00  0.00    +0.150 HD
BRANCH   2   6
ATOM      6  CA  VAL A   2      -6.773   9.528  15.164  0.00  0.00    +0.148 C 
BRANCH   6   9
ATOM      7  C   TYR A   1      -5.482  10.177  17.153  0.00  0.00    +0.239 C 
ATOM      8  O   TYR A   1      -4.665   9.272  17.114  0.00  0.00    -0.274 OA
ATOM      9  N   VAL A   2      -6.510  10.297  16.340  0.00  0.00    -0.297 N 
ATOM     10  H   VAL A   2      -7.207  11.031  16.579  0.00  0.00    +0.150 HD
BRANCH   7  11
ATOM     11  CA  TYR A   1      -5.228  11.442  17.981  0.00  0.00    +0.149 C 
BRANCH  11  12
ATOM     12  N   TYR A   1      -4.398  11.150  19.125  0.00  0.00    -0.238 NA
ATOM     13  H   TYR A   1      -3.433  11.537  19.162  0.00  0.00    +0.142 HD
ENDBRANCH  11  12
BRANCH  11  14
ATOM     14  CB  TYR A   1      -4.499  12.327  16.949  0.00  0.00    +0.053 C 
BRANCH  14  15
ATOM     15  CG  TYR A   1      -4.237  13.779  17.223  0.00  0.00    -0.020 A 
ATOM     16  CD2 TYR A   1      -3.442  14.196  18.281  0.00  0.00    -0.001 A 
ATOM     17  CE2 TYR A   1      -3.187  15.527  18.531  0.00  0.00    +0.036 A 
ATOM     18  CZ  TYR A   1      -3.754  16.476  17.714  0.00  0.00    +0.134 A 
ATOM     19  CE1 TYR A   1      -4.570  16.121  16.668  0.00  0.00    +0.036 A 
ATOM     20  CD1 TYR A   1      -4.804  14.771  16.415  0.00  0.00    -0.001 A 
BRANCH  18  21
ATOM     21  OH  TYR A   1      -3.465  17.801  17.987  0.00  0.00    -0.506 OA
ATOM     22  HH  TYR A   1      -3.019  18.208  17.203  0.00  0.00    +0.292 HD
ENDBRANCH  18  21
ENDBRANCH  14  15
ENDBRANCH  11  14
ENDBRANCH   7  11
ENDBRANCH   6   9
BRANCH   6  23
ATOM     23  CB  VAL A   2      -8.172   8.926  14.962  0.00  0.00    +0.027 C 
ATOM     24  CG2 VAL A   2      -8.265   7.744  15.940  0.00  0.00    +0.002 C 
ATOM     25  CG1 VAL A   2      -9.260   9.962  15.207  0.00  0.00    +0.002 C 
ENDBRANCH   6  23
ENDBRANCH   2   6
ENDBRANCH   1   4
BRANCH   1  26
ATOM     26  C   ASN A   3      -7.315  10.918  10.912  0.00  0.00    +0.241 C 
ATOM     27  N   ALA A   4      -8.141  11.931  11.166  0.00  0.00    -0.297 N 
ATOM     28  H   ALA A   4      -7.810  12.694  11.791  0.00  0.00    +0.150 HD
ATOM     29  O   ASN A   3      -7.594  10.022  10.130  0.00  0.00    -0.273 OA
BRANCH  27  30
ATOM     30  CA  ALA A   4      -9.471  12.023  10.618  0.00  0.00    +0.149 C 
ATOM     31  CB  ALA A   4     -10.535  12.148  11.699  0.00  0.00    +0.031 C 
BRANCH  30  32
ATOM     32  C   ALA A   4      -9.584  13.211   9.655  0.00  0.00    +0.241 C 
ATOM     33  O   ALA A   4      -9.237  14.337  10.038  0.00  0.00    -0.273 OA
ATOM     34  N   ARG A   5      -9.871  12.912   8.412  0.00  0.00    -0.298 N 
ATOM     35  H   ARG A   5     -10.005  11.921   8.126  0.00  0.00    +0.150 HD
BRANCH  34  36
ATOM     36  CA  ARG A   5     -10.001  13.994   7.427  0.00  0.00    +0.137 C 
BRANCH  36  37
ATOM     37  C   ARG A   5     -11.006  13.548   6.362  0.00  0.00    +0.227 C 
ATOM     38  O   ARG A   5     -11.289  12.341   6.287  0.00  0.00    -0.286 OA
ENDBRANCH  36  37
BRANCH  36  39
ATOM     39  CB  ARG A   5      -8.680  14.259   6.700  0.00  0.00    +0.031 C 
BRANCH  39  40
ATOM     40  CG  ARG A   5      -8.054  12.963   6.164  0.00  0.00    +0.045 C 
BRANCH  40  41
ATOM     41  CD  ARG A   5      -7.095  13.249   5.014  0.00  0.00    +0.174 C 
BRANCH  41  42
ATOM     42  NE  ARG A   5      -6.060  14.224   5.254  0.00  0.00    -0.265 N 
ATOM     43  CZ  ARG A   5      -4.833  14.146   5.717  0.00  0.00    +0.342 C 
ATOM     44  NH2 ARG A   5      -4.323  12.983   6.072  0.00  0.00    -0.292 N 
ATOM     45 HH21 ARG A   5      -3.351  12.931   6.437  0.00  0.00    +0.255 HD
ATOM     46 HH22 ARG A   5      -4.893  12.117   5.987  0.00  0.00    +0.255 HD
ATOM     47  NH1 ARG A   5      -4.063  15.218   5.824  0.00  0.00    -0.292 N 
ATOM     48 HH11 ARG A   5      -3.095  15.128   6.194  0.00  0.00    +0.255 HD
ATOM     49 HH12 ARG A   5      -4.426  16.150   5.538  0.00  0.00    +0.255 HD
ATOM     50  HE  ARG A   5      -6.345  15.194   5.009  0.00  0.00    +0.259 HD
ENDBRANCH  41  42
ENDBRANCH  40  41
ENDBRANCH  39  40
ENDBRANCH  36  39
ENDBRANCH  34  36
ENDBRANCH  30  32
ENDBRANCH  27  30
ENDBRANCH   1  26
BRANCH   1  51
ATOM     51  CB  ASN A   3      -4.846  10.318  10.820  0.00  0.00    +0.114 C 
BRANCH  51  52
ATOM     52  CG  ASN A   3      -4.569  11.208   9.609  0.00  0.00    +0.222 C 
ATOM     53  OD1 ASN A   3      -5.236  12.193   9.317  0.00  0.00    -0.275 OA
ATOM     54  ND2 ASN A   3      -3.511  10.843   8.888  0.00  0.00    -0.329 N 
ATOM     55 HD21 ASN A   3      -2.962  10.002   9.159  0.00  0.00    +0.145 HD
ATOM     56 HD22 ASN A   3      -3.233  11.399   8.054  0.00  0.00    +0.145 HD
ENDBRANCH  51  52
ENDBRANCH   1  51
TORSDOF 20
REMARK  Name = ../refined-set-2016/1b3h/1b3h_pocket.pdb
REMARK  269 active torsions:
REMARK  status: ('A' for Active; 'I' for Inactive)
REMARK    1  A    between atoms: _1  and  _3
REMARK    2  A    between atoms: _3  and  _4
REMARK    3  A    between atoms: _3  and  _6
REMARK    4  A    between atoms: _6  and  _7
REMARK    5  A    between atoms: _12  and  _14
REMARK    6  A    between atoms: _14  and  _15
REMARK    7  A    between atoms: _17  and  _19
REMARK    8  A    between atoms: _19  and  _20
REMARK    9  A    between atoms: _19  and  _22
REMARK   10  A    between atoms: _22  and  _23
REMARK   11  A    between atoms: _25  and  _27
REMARK   12  A    between atoms: _27  and  _28
REMARK   13  A    between atoms: _27  and  _30
REMARK   14  A    between atoms: _30  and  _31
REMARK   15  A    between atoms: _31  and  _32
REMARK   16  A    between atoms: _37  and  _39
REMARK   17  A    between atoms: _39  and  _40
REMARK   18  A    between atoms: _39  and  _42
REMARK   19  A    between atoms: _42  and  _43
REMARK   20  A    between atoms: _46  and  _48
REMARK   21  A    between atoms: _48  and  _49
REMARK   22  A    between atoms: _48  and  _51
REMARK   23  A    between atoms: _51  and  _52
REMARK   24  A    between atoms: _52  and  _53
REMARK   25  A    between atoms: _56  and  _58
REMARK   26  A    between atoms: _58  and  _59
REMARK   27  A    between atoms: _61  and  _63
REMARK   28  A    between atoms: _63  and  _64
REMARK   29  A    between atoms: _63  and  _66
REMARK   30  A    between atoms: _70  and  _71
REMARK   31  A    between atoms: _76  and  _78
REMARK   32  A    between atoms: _78  and  _79
REMARK   33  A    between atoms: _78  and  _81
REMARK   34  A    between atoms: _81  and  _82
REMARK   35  A    between atoms: _82  and  _83
REMARK   36  A    between atoms: _86  and  _88
REMARK   37  A    between atoms: _88  and  _89
REMARK   38  A    between atoms: _88  and  _91
REMARK   39  A    between atoms: _91  and  _92
REMARK   40  A    between atoms: _94  and  _96
REMARK   41  A    between atoms: _96  and  _97
REMARK   42  A    between atoms: _96  and  _99
REMARK   43  A    between atoms: _99  and  _100
REMARK   44  A    between atoms: _105  and  _107
REMARK   45  A    between atoms: _107  and  _108
REMARK   46  A    between atoms: _107  and  _110
REMARK   47  A    between atoms: _110  and  _111
REMARK   48  A    between atoms: _111  and  _112
REMARK   49  A    between atoms: _112  and  _113
REMARK   50  A    between atoms: _123  and  _124
REMARK   51  A    between atoms: _129  and  _131
REMARK   52  A    between atoms: _131  and  _132
REMARK   53  A    between atoms: _131  and  _134
REMARK   54  A    between atoms: _134  and  _135
REMARK   55  A    between atoms: _140  and  _141
REMARK   56  A    between atoms: _143  and  _145
REMARK   57  A    between atoms: _145  and  _146
REMARK   58  A    between atoms: _145  and  _148
REMARK   59  A    between atoms: _148  and  _149
REMARK   60  A    between atoms: _154  and  _155
REMARK   61  A    between atoms: _157  and  _159
REMARK   62  A    between atoms: _159  and  _160
REMARK   63  A    between atoms: _159  and  _162
REMARK   64  A    between atoms: _162  and  _163
REMARK   65  A    between atoms: _168  and  _169
REMARK   66  A    between atoms: _171  and  _173
REMARK   67  A    between atoms: _173  and  _174
REMARK   68  A    between atoms: _173  and  _176
REMARK   69  A    between atoms: _179  and  _181
REMARK   70  A    between atoms: _181  and  _182
REMARK   71  A    between atoms: _181  and  _184
REMARK   72  A    between atoms: _184  and  _185
REMARK   73  A    between atoms: _191  and  _192
REMARK   74  A    between atoms: _197  and  _199
REMARK   75  A    between atoms: _199  and  _200
REMARK   76  A    between atoms: _199  and  _202
REMARK   77  A    between atoms: _202  and  _203
REMARK   78  A    between atoms: _205  and  _207
REMARK   79  A    between atoms: _207  and  _208
REMARK   80  A    between atoms: _207  and  _210
REMARK   81  A    between atoms: _210  and  _211
REMARK   82  A    between atoms: _216  and  _217
REMARK   83  A    between atoms: _219  and  _221
REMARK   84  A    between atoms: _221  and  _222
REMARK   85  A    between atoms: _221  and  _224
REMARK   86  A    between atoms: _224  and  _225
REMARK   87  A    between atoms: _230  and  _232
REMARK   88  A    between atoms: _232  and  _233
REMARK   89  A    between atoms: _232  and  _235
REMARK   90  A    between atoms: _235  and  _236
REMARK   91  A    between atoms: _241  and  _243
REMARK   92  A    between atoms: _243  and  _244
REMARK   93  A    between atoms: _243  and  _246
REMARK   94  A    between atoms: _246  and  _247
REMARK   95  A    between atoms: _247  and  _248
REMARK   96  A    between atoms: _250  and  _252
REMARK   97  A    between atoms: _252  and  _253
REMARK   98  A    between atoms: _252  and  _255
REMARK   99  A    between atoms: _255  and  _256
REMARK  100  A    between atoms: _261  and  _262
REMARK  101  A    between atoms: _264  and  _266
REMARK  102  A    between atoms: _266  and  _267
REMARK  103  A    between atoms: _266  and  _269
REMARK  104  A    between atoms: _269  and  _270
REMARK  105  A    between atoms: _273  and  _275
REMARK  106  A    between atoms: _275  and  _276
REMARK  107  A    between atoms: _275  and  _278
REMARK  108  A    between atoms: _278  and  _279
REMARK  109  A    between atoms: _279  and  _496
REMARK  110  A    between atoms: _280  and  _282
REMARK  111  A    between atoms: _282  and  _283
REMARK  112  A    between atoms: _282  and  _285
REMARK  113  A    between atoms: _285  and  _286
REMARK  114  A    between atoms: _289  and  _291
REMARK  115  A    between atoms: _291  and  _292
REMARK  116  A    between atoms: _291  and  _294
REMARK  117  A    between atoms: _294  and  _295
REMARK  118  A    between atoms: _300  and  _301
REMARK  119  A    between atoms: _303  and  _305
REMARK  120  A    between atoms: _305  and  _306
REMARK  121  A    between atoms: _305  and  _308
REMARK  122  A    between atoms: _308  and  _309
REMARK  123  A    between atoms: _314  and  _315
REMARK  124  A    between atoms: _317  and  _319
REMARK  125  A    between atoms: _319  and  _320
REMARK  126  A    between atoms: _319  and  _322
REMARK  127  A    between atoms: _322  and  _323
REMARK  128  A    between atoms: _323  and  _324
REMARK  129  A    between atoms: _327  and  _329
REMARK  130  A    between atoms: _329  and  _330
REMARK  131  A    between atoms: _329  and  _332
REMARK  132  A    between atoms: _332  and  _333
REMARK  133  A    between atoms: _338  and  _339
REMARK  134  A    between atoms: _341  and  _343
REMARK  135  A    between atoms: _343  and  _344
REMARK  136  A    between atoms: _343  and  _346
REMARK  137  A    between atoms: _346  and  _347
REMARK  138  A    between atoms: _352  and  _354
REMARK  139  A    between atoms: _354  and  _355
REMARK  140  A    between atoms: _354  and  _357
REMARK  141  A    between atoms: _357  and  _358
REMARK  142  A    between atoms: _361  and  _363
REMARK  143  A    between atoms: _363  and  _364
REMARK  144  A    between atoms: _363  and  _366
REMARK  145  A    between atoms: _366  and  _367
REMARK  146  A    between atoms: _372  and  _374
REMARK  147  A    between atoms: _374  and  _375
REMARK  148  A    between atoms: _374  and  _377
REMARK  149  A    between atoms: _377  and  _378
REMARK  150  A    between atoms: _388  and  _390
REMARK  151  A    between atoms: _390  and  _391
REMARK  152  A    between atoms: _390  and  _393
REMARK  153  A    between atoms: _393  and  _394
REMARK  154  A    between atoms: _400  and  _402
REMARK  155  A    between atoms: _402  and  _403
REMARK  156  A    between atoms: _402  and  _405
REMARK  157  A    between atoms: _405  and  _406
REMARK  158  A    between atoms: _409  and  _411
REMARK  159  A    between atoms: _411  and  _412
REMARK  160  A    between atoms: _411  and  _414
REMARK  161  A    between atoms: _414  and  _415
REMARK  162  A    between atoms: _418  and  _420
REMARK  163  A    between atoms: _420  and  _421
REMARK  164  A    between atoms: _420  and  _423
REMARK  165  A    between atoms: _423  and  _424
REMARK  166  A    between atoms: _424  and  _425
REMARK  167  A    between atoms: _425  and  _426
REMARK  168  A    between atoms: _435  and  _437
REMARK  169  A    between atoms: _437  and  _438
REMARK  170  A    between atoms: _437  and  _440
REMARK  171  A    between atoms: _440  and  _441
REMARK  172  A    between atoms: _446  and  _448
REMARK  173  A    between atoms: _448  and  _449
REMARK  174  A    between atoms: _448  and  _451
REMARK  175  A    between atoms: _451  and  _452
REMARK  176  A    between atoms: _452  and  _453
REMARK  177  A    between atoms: _453  and  _454
REMARK  178  A    between atoms: _463  and  _465
REMARK  179  A    between atoms: _465  and  _466
REMARK  180  A    between atoms: _469  and  _471
REMARK  181  A    between atoms: _471  and  _472
REMARK  182  A    between atoms: _474  and  _476
REMARK  183  A    between atoms: _476  and  _477
REMARK  184  A    between atoms: _476  and  _479
REMARK  185  A    between atoms: _479  and  _480
REMARK  186  A    between atoms: _490  and  _492
REMARK  187  A    between atoms: _492  and  _493
REMARK  188  A    between atoms: _492  and  _495
REMARK  189  A    between atoms: _495  and  _496
REMARK  190  A    between atoms: _497  and  _499
REMARK  191  A    between atoms: _499  and  _500
REMARK  192  A    between atoms: _503  and  _505
REMARK  193  A    between atoms: _505  and  _506
REMARK  194  A    between atoms: _505  and  _508
REMARK  195  A    between atoms: _508  and  _509
REMARK  196  A    between atoms: _512  and  _514
REMARK  197  A    between atoms: _514  and  _515
REMARK  198  A    between atoms: _514  and  _517
REMARK  199  A    between atoms: _517  and  _518
REMARK  200  A    between atoms: _523  and  _524
REMARK  201  A    between atoms: _526  and  _528
REMARK  202  A    between atoms: _528  and  _529
REMARK  203  A    between atoms: _528  and  _531
REMARK  204  A    between atoms: _531  and  _532
REMARK  205  A    between atoms: _534  and  _536
REMARK  206  A    between atoms: _536  and  _537
REMARK  207  A    between atoms: _536  and  _539
REMARK  208  A    between atoms: _539  and  _540
REMARK  209  A    between atoms: _546  and  _548
REMARK  210  A    between atoms: _548  and  _549
REMARK  211  A    between atoms: _548  and  _551
REMARK  212  A    between atoms: _551  and  _552
REMARK  213  A    between atoms: _555  and  _557
REMARK  214  A    between atoms: _557  and  _558
REMARK  215  A    between atoms: _557  and  _560
REMARK  216  A    between atoms: _560  and  _561
REMARK  217  A    between atoms: _563  and  _565
REMARK  218  A    between atoms: _565  and  _566
REMARK  219  A    between atoms: _565  and  _568
REMARK  220  A    between atoms: _568  and  _569
REMARK  221  A    between atoms: _574  and  _576
REMARK  222  A    between atoms: _576  and  _577
REMARK  223  A    between atoms: _576  and  _579
REMARK  224  A    between atoms: _579  and  _580
REMARK  225  A    between atoms: _585  and  _587
REMARK  226  A    between atoms: _587  and  _588
REMARK  227  A    between atoms: _587  and  _590
REMARK  228  A    between atoms: _590  and  _591
REMARK  229  A    between atoms: _594  and  _596
REMARK  230  A    between atoms: _596  and  _597
REMARK  231  A    between atoms: _600  and  _602
REMARK  232  A    between atoms: _602  and  _603
REMARK  233  A    between atoms: _602  and  _605
REMARK  234  A    between atoms: _605  and  _606
REMARK  235  A    between atoms: _611  and  _612
REMARK  236  A    between atoms: _614  and  _616
REMARK  237  A    between atoms: _616  and  _617
REMARK  238  A    between atoms: _616  and  _619
REMARK  239  A    between atoms: _619  and  _620
REMARK  240  A    between atoms: _625  and  _626
REMARK  241  A    between atoms: _628  and  _630
REMARK  242  A    between atoms: _630  and  _631
REMARK  243  A    between atoms: _630  and  _633
REMARK  244  A    between atoms: _636  and  _638
REMARK  245  A    between atoms: _638  and  _639
REMARK  246  A    between atoms: _638  and  _641
REMARK  247  A    between atoms: _641  and  _642
REMARK  248  A    between atoms: _647  and  _649
REMARK  249  A    between atoms: _649  and  _650
REMARK  250  A    between atoms: _653  and  _655
REMARK  251  A    between atoms: _655  and  _656
REMARK  252  A    between atoms: _655  and  _658
REMARK  253  A    between atoms: _658  and  _659
REMARK  254  A    between atoms: _659  and  _660
REMARK  255  A    between atoms: _660  and  _661
REMARK  256  A    between atoms: _670  and  _672
REMARK  257  A    between atoms: _672  and  _673
REMARK  258  A    between atoms: _672  and  _675
REMARK  259  A    between atoms: _675  and  _676
REMARK  260  A    between atoms: _679  and  _681
REMARK  261  A    between atoms: _681  and  _682
REMARK  262  A    between atoms: _681  and  _684
REMARK  263  A    between atoms: _684  and  _685
REMARK  264  A    between atoms: _688  and  _690
REMARK  265  A    between atoms: _690  and  _691
REMARK  266  A    between atoms: _690  and  _693
REMARK  267  A    between atoms: _693  and  _694
REMARK  268  A    between atoms: _724  and  _725
REMARK  269  A    between atoms: _725  and  _731
REMARK                            x       y       z     vdW  Elec       q    Type
REMARK                         _______ _______ _______ _____ _____    ______ ____
ROOT
ATOM      1  CA  ASP A   2       0.783  10.970   7.716  0.00  0.00    +0.160 C 
ENDROOT
BRANCH   1   4
ATOM      2  C   LEU A   1       2.272  10.576   9.624  0.00  0.00    +0.238 C 
ATOM      3  O   LEU A   1       2.574  11.780   9.715  0.00  0.00    -0.274 OA
ATOM      4  N   ASP A   2       1.466  10.111   8.681  0.00  0.00    -0.297 N 
ATOM      5  H   ASP A   2       1.312   9.084   8.625  0.00  0.00    +0.150 HD
BRANCH   2   6
ATOM      6  CA  LEU A   1       3.008   9.582  10.528  0.00  0.00    +0.145 C 
BRANCH   6   7
ATOM      7  N   LEU A   1       2.394   8.270  10.442  0.00  0.00    -0.238 NA
ATOM      8  H   LEU A   1       2.690   7.617   9.688  0.00  0.00    +0.142 HD
ENDBRANCH   6   7
BRANCH   6   9
ATOM      9  CB  LEU A   1       4.515   9.634  10.232  0.00  0.00    +0.026 C 
BRANCH   9  10
ATOM     10  CG  LEU A   1       5.398   8.743  11.130  0.00  0.00    +0.002 C 
ATOM     11  CD2 LEU A   1       5.024   8.901  12.579  0.00  0.00    +0.000 C 
ATOM     12  CD1 LEU A   1       6.897   8.966  10.969  0.00  0.00    +0.000 C 
ENDBRANCH   9  10
ENDBRANCH   6   9
ENDBRANCH   2   6
ENDBRANCH   1   4
BRANCH   1  13
ATOM     13  C   ASP A   2       1.816  11.763   6.893  0.00  0.00    +0.241 C 
ATOM     14  O   ASP A   2       1.618  12.941   6.603  0.00  0.00    -0.273 OA
ATOM     15  N   ASN A   3       2.874  11.096   6.444  0.00  0.00    -0.298 N 
ATOM     16  H   ASN A   3       2.990  10.089   6.677  0.00  0.00    +0.150 HD
BRANCH  15  17
ATOM     17  CA  ASN A   3       3.881  11.777   5.619  0.00  0.00    +0.146 C 
BRANCH  17  18
ATOM     18  C   ASN A   3       3.428  11.733   4.157  0.00  0.00    +0.227 C 
ATOM     19  O   ASN A   3       4.019  10.971   3.407  0.00  0.00    -0.286 OA
ENDBRANCH  17  18
BRANCH  17  20
ATOM     20  CB  ASN A   3       5.261  11.195   5.845  0.00  0.00    +0.112 C 
BRANCH  20  21
ATOM     21  CG  ASN A   3       5.900  11.716   7.123  0.00  0.00    +0.222 C 
ATOM     22  ND2 ASN A   3       6.557  10.872   7.873  0.00  0.00    -0.329 N 
ATOM     23 HD21 ASN A   3       7.011  11.199   8.750  0.00  0.00    +0.145 HD
ATOM     24 HD22 ASN A   3       6.626   9.873   7.594  0.00  0.00    +0.145 HD
ATOM     25  OD1 ASN A   3       5.819  12.886   7.450  0.00  0.00    -0.275 OA
ENDBRANCH  20  21
ENDBRANCH  17  20
ENDBRANCH  15  17
ENDBRANCH   1  13
BRANCH   1  26
ATOM     26  CB  ASP A   2      -0.168  11.964   8.384  0.00  0.00    +0.143 C 
BRANCH  26  27
ATOM     27  CG  ASP A   2      -1.195  12.592   7.442  0.00  0.00    +0.367 C 
ATOM     28  OD2 ASP A   2      -1.330  13.836   7.417  0.00  0.00    -0.246 OA
ATOM     29  OD1 ASP A   2      -1.843  11.907   6.670  0.00  0.00    -0.246 OA
ENDBRANCH  26  27
ENDBRANCH   1  26
TORSDOF 12
REMARK  Name = ../refined-set-2016/1b3h/1b3h_pocket.pdb
REMARK  269 active torsions:
REMARK  status: ('A' for Active; 'I' for Inactive)
REMARK    1  A    between atoms: _1  and  _3
REMARK    2  A    between atoms: _3  and  _4
REMARK    3  A    between atoms: _3  and  _6
REMARK    4  A    between atoms: _6  and  _7
REMARK    5  A    between atoms: _12  and  _14
REMARK    6  A    between atoms: _14  and  _15
REMARK    7  A    between atoms: _17  and  _19
REMARK    8  A    between atoms: _19  and  _20
REMARK    9  A    between atoms: _19  and  _22
REMARK   10  A    between atoms: _22  and  _23
REMARK   11  A    between atoms: _25  and  _27
REMARK   12  A    between atoms: _27  and  _28
REMARK   13  A    between atoms: _27  and  _30
REMARK   14  A    between atoms: _30  and  _31
REMARK   15  A    between atoms: _31  and  _32
REMARK   16  A    between atoms: _37  and  _39
REMARK   17  A    between atoms: _39  and  _40
REMARK   18  A    between atoms: _39  and  _42
REMARK   19  A    between atoms: _42  and  _43
REMARK   20  A    between atoms: _46  and  _48
REMARK   21  A    between atoms: _48  and  _49
REMARK   22  A    between atoms: _48  and  _51
REMARK   23  A    between atoms: _51  and  _52
REMARK   24  A    between atoms: _52  and  _53
REMARK   25  A    between atoms: _56  and  _58
REMARK   26  A    between atoms: _58  and  _59
REMARK   27  A    between atoms: _61  and  _63
REMARK   28  A    between atoms: _63  and  _64
REMARK   29  A    between atoms: _63  and  _66
REMARK   30  A    between atoms: _70  and  _71
REMARK   31  A    between atoms: _76  and  _78
REMARK   32  A    between atoms: _78  and  _79
REMARK   33  A    between atoms: _78  and  _81
REMARK   34  A    between atoms: _81  and  _82
REMARK   35  A    between atoms: _82  and  _83
REMARK   36  A    between atoms: _86  and  _88
REMARK   37  A    between atoms: _88  and  _89
REMARK   38  A    between atoms: _88  and  _91
REMARK   39  A    between atoms: _91  and  _92
REMARK   40  A    between atoms: _94  and  _96
REMARK   41  A    between atoms: _96  and  _97
REMARK   42  A    between atoms: _96  and  _99
REMARK   43  A    between atoms: _99  and  _100
REMARK   44  A    between atoms: _105  and  _107
REMARK   45  A    between atoms: _107  and  _108
REMARK   46  A    between atoms: _107  and  _110
REMARK   47  A    between atoms: _110  and  _111
REMARK   48  A    between atoms: _111  and  _112
REMARK   49  A    between atoms: _112  and  _113
REMARK   50  A    between atoms: _123  and  _124
REMARK   51  A    between atoms: _129  and  _131
REMARK   52  A    between atoms: _131  and  _132
REMARK   53  A    between atoms: _131  and  _134
REMARK   54  A    between atoms: _134  and  _135
REMARK   55  A    between atoms: _140  and  _141
REMARK   56  A    between atoms: _143  and  _145
REMARK   57  A    between atoms: _145  and  _146
REMARK   58  A    between atoms: _145  and  _148
REMARK   59  A    between atoms: _148  and  _149
REMARK   60  A    between atoms: _154  and  _155
REMARK   61  A    between atoms: _157  and  _159
REMARK   62  A    between atoms: _159  and  _160
REMARK   63  A    between atoms: _159  and  _162
REMARK   64  A    between atoms: _162  and  _163
REMARK   65  A    between atoms: _168  and  _169
REMARK   66  A    between atoms: _171  and  _173
REMARK   67  A    between atoms: _173  and  _174
REMARK   68  A    between atoms: _173  and  _176
REMARK   69  A    between atoms: _179  and  _181
REMARK   70  A    between atoms: _181  and  _182
REMARK   71  A    between atoms: _181  and  _184
REMARK   72  A    between atoms: _184  and  _185
REMARK   73  A    between atoms: _191  and  _192
REMARK   74  A    between atoms: _197  and  _199
REMARK   75  A    between atoms: _199  and  _200
REMARK   76  A    between atoms: _199  and  _202
REMARK   77  A    between atoms: _202  and  _203
REMARK   78  A    between atoms: _205  and  _207
REMARK   79  A    between atoms: _207  and  _208
REMARK   80  A    between atoms: _207  and  _210
REMARK   81  A    between atoms: _210  and  _211
REMARK   82  A    between atoms: _216  and  _217
REMARK   83  A    between atoms: _219  and  _221
REMARK   84  A    between atoms: _221  and  _222
REMARK   85  A    between atoms: _221  and  _224
REMARK   86  A    between atoms: _224  and  _225
REMARK   87  A    between atoms: _230  and  _232
REMARK   88  A    between atoms: _232  and  _233
REMARK   89  A    between atoms: _232  and  _235
REMARK   90  A    between atoms: _235  and  _236
REMARK   91  A    between atoms: _241  and  _243
REMARK   92  A    between atoms: _243  and  _244
REMARK   93  A    between atoms: _243  and  _246
REMARK   94  A    between atoms: _246  and  _247
REMARK   95  A    between atoms: _247  and  _248
REMARK   96  A    between atoms: _250  and  _252
REMARK   97  A    between atoms: _252  and  _253
REMARK   98  A    between atoms: _252  and  _255
REMARK   99  A    between atoms: _255  and  _256
REMARK  100  A    between atoms: _261  and  _262
REMARK  101  A    between atoms: _264  and  _266
REMARK  102  A    between atoms: _266  and  _267
REMARK  103  A    between atoms: _266  and  _269
REMARK  104  A    between atoms: _269  and  _270
REMARK  105  A    between atoms: _273  and  _275
REMARK  106  A    between atoms: _275  and  _276
REMARK  107  A    between atoms: _275  and  _278
REMARK  108  A    between atoms: _278  and  _279
REMARK  109  A    between atoms: _279  and  _496
REMARK  110  A    between atoms: _280  and  _282
REMARK  111  A    between atoms: _282  and  _283
REMARK  112  A    between atoms: _282  and  _285
REMARK  113  A    between atoms: _285  and  _286
REMARK  114  A    between atoms: _289  and  _291
REMARK  115  A    between atoms: _291  and  _292
REMARK  116  A    between atoms: _291  and  _294
REMARK  117  A    between atoms: _294  and  _295
REMARK  118  A    between atoms: _300  and  _301
REMARK  119  A    between atoms: _303  and  _305
REMARK  120  A    between atoms: _305  and  _306
REMARK  121  A    between atoms: _305  and  _308
REMARK  122  A    between atoms: _308  and  _309
REMARK  123  A    between atoms: _314  and  _315
REMARK  124  A    between atoms: _317  and  _319
REMARK  125  A    between atoms: _319  and  _320
REMARK  126  A    between atoms: _319  and  _322
REMARK  127  A    between atoms: _322  and  _323
REMARK  128  A    between atoms: _323  and  _324
REMARK  129  A    between atoms: _327  and  _329
REMARK  130  A    between atoms: _329  and  _330
REMARK  131  A    between atoms: _329  and  _332
REMARK  132  A    between atoms: _332  and  _333
REMARK  133  A    between atoms: _338  and  _339
REMARK  134  A    between atoms: _341  and  _343
REMARK  135  A    between atoms: _343  and  _344
REMARK  136  A    between atoms: _343  and  _346
REMARK  137  A    between atoms: _346  and  _347
REMARK  138  A    between atoms: _352  and  _354
REMARK  139  A    between atoms: _354  and  _355
REMARK  140  A    between atoms: _354  and  _357
REMARK  141  A    between atoms: _357  and  _358
REMARK  142  A    between atoms: _361  and  _363
REMARK  143  A    between atoms: _363  and  _364
REMARK  144  A    between atoms: _363  and  _366
REMARK  145  A    between atoms: _366  and  _367
REMARK  146  A    between atoms: _372  and  _374
REMARK  147  A    between atoms: _374  and  _375
REMARK  148  A    between atoms: _374  and  _377
REMARK  149  A    between atoms: _377  and  _378
REMARK  150  A    between atoms: _388  and  _390
REMARK  151  A    between atoms: _390  and  _391
REMARK  152  A    between atoms: _390  and  _393
REMARK  153  A    between atoms: _393  and  _394
REMARK  154  A    between atoms: _400  and  _402
REMARK  155  A    between atoms: _402  and  _403
REMARK  156  A    between atoms: _402  and  _405
REMARK  157  A    between atoms: _405  and  _406
REMARK  158  A    between atoms: _409  and  _411
REMARK  159  A    between atoms: _411  and  _412
REMARK  160  A    between atoms: _411  and  _414
REMARK  161  A    between atoms: _414  and  _415
REMARK  162  A    between atoms: _418  and  _420
REMARK  163  A    between atoms: _420  and  _421
REMARK  164  A    between atoms: _420  and  _423
REMARK  165  A    between atoms: _423  and  _424
REMARK  166  A    between atoms: _424  and  _425
REMARK  167  A    between atoms: _425  and  _426
REMARK  168  A    between atoms: _435  and  _437
REMARK  169  A    between atoms: _437  and  _438
REMARK  170  A    between atoms: _437  and  _440
REMARK  171  A    between atoms: _440  and  _441
REMARK  172  A    between atoms: _446  and  _448
REMARK  173  A    between atoms: _448  and  _449
REMARK  174  A    between atoms: _448  and  _451
REMARK  175  A    between atoms: _451  and  _452
REMARK  176  A    between atoms: _452  and  _453
REMARK  177  A    between atoms: _453  and  _454
REMARK  178  A    between atoms: _463  and  _465
REMARK  179  A    between atoms: _465  and  _466
REMARK  180  A    between atoms: _469  and  _471
REMARK  181  A    between atoms: _471  and  _472
REMARK  182  A    between atoms: _474  and  _476
REMARK  183  A    between atoms: _476  and  _477
REMARK  184  A    between atoms: _476  and  _479
REMARK  185  A    between atoms: _479  and  _480
REMARK  186  A    between atoms: _490  and  _492
REMARK  187  A    between atoms: _492  and  _493
REMARK  188  A    between atoms: _492  and  _495
REMARK  189  A    between atoms: _495  and  _496
REMARK  190  A    between atoms: _497  and  _499
REMARK  191  A    between atoms: _499  and  _500
REMARK  192  A    between atoms: _503  and  _505
REMARK  193  A    between atoms: _505  and  _506
REMARK  194  A    between atoms: _505  and  _508
REMARK  195  A    between atoms: _508  and  _509
REMARK  196  A    between atoms: _512  and  _514
REMARK  197  A    between atoms: _514  and  _515
REMARK  198  A    between atoms: _514  and  _517
REMARK  199  A    between atoms: _517  and  _518
REMARK  200  A    between atoms: _523  and  _524
REMARK  201  A    between atoms: _526  and  _528
REMARK  202  A    between atoms: _528  and  _529
REMARK  203  A    between atoms: _528  and  _531
REMARK  204  A    between atoms: _531  and  _532
REMARK  205  A    between atoms: _534  and  _536
REMARK  206  A    between atoms: _536  and  _537
REMARK  207  A    between atoms: _536  and  _539
REMARK  208  A    between atoms: _539  and  _540
REMARK  209  A    between atoms: _546  and  _548
REMARK  210  A    between atoms: _548  and  _549
REMARK  211  A    between atoms: _548  and  _551
REMARK  212  A    between atoms: _551  and  _552
REMARK  213  A    between atoms: _555  and  _557
REMARK  214  A    between atoms: _557  and  _558
REMARK  215  A    between atoms: _557  and  _560
REMARK  216  A    between atoms: _560  and  _561
REMARK  217  A    between atoms: _563  and  _565
REMARK  218  A    between atoms: _565  and  _566
REMARK  219  A    between atoms: _565  and  _568
REMARK  220  A    between atoms: _568  and  _569
REMARK  221  A    between atoms: _574  and  _576
REMARK  222  A    between atoms: _576  and  _577
REMARK  223  A    between atoms: _576  and  _579
REMARK  224  A    between atoms: _579  and  _580
REMARK  225  A    between atoms: _585  and  _587
REMARK  226  A    between atoms: _587  and  _588
REMARK  227  A    between atoms: _587  and  _590
REMARK  228  A    between atoms: _590  and  _591
REMARK  229  A    between atoms: _594  and  _596
REMARK  230  A    between atoms: _596  and  _597
REMARK  231  A    between atoms: _600  and  _602
REMARK  232  A    between atoms: _602  and  _603
REMARK  233  A    between atoms: _602  and  _605
REMARK  234  A    between atoms: _605  and  _606
REMARK  235  A    between atoms: _611  and  _612
REMARK  236  A    between atoms: _614  and  _616
REMARK  237  A    between atoms: _616  and  _617
REMARK  238  A    between atoms: _616  and  _619
REMARK  239  A    between atoms: _619  and  _620
REMARK  240  A    between atoms: _625  and  _626
REMARK  241  A    between atoms: _628  and  _630
REMARK  242  A    between atoms: _630  and  _631
REMARK  243  A    between atoms: _630  and  _633
REMARK  244  A    between atoms: _636  and  _638
REMARK  245  A    between atoms: _638  and  _639
REMARK  246  A    between atoms: _638  and  _641
REMARK  247  A    between atoms: _641  and  _642
REMARK  248  A    between atoms: _647  and  _649
REMARK  249  A    between atoms: _649  and  _650
REMARK  250  A    between atoms: _653  and  _655
REMARK  251  A    between atoms: _655  and  _656
REMARK  252  A    between atoms: _655  and  _658
REMARK  253  A    between atoms: _658  and  _659
REMARK  254  A    between atoms: _659  and  _660
REMARK  255  A    between atoms: _660  and  _661
REMARK  256  A    between atoms: _670  and  _672
REMARK  257  A    between atoms: _672  and  _673
REMARK  258  A    between atoms: _672  and  _675
REMARK  259  A    between atoms: _675  and  _676
REMARK  260  A    between atoms: _679  and  _681
REMARK  261  A    between atoms: _681  and  _682
REMARK  262  A    between atoms: _681  and  _684
REMARK  263  A    between atoms: _684  and  _685
REMARK  264  A    between atoms: _688  and  _690
REMARK  265  A    between atoms: _690  and  _691
REMARK  266  A    between atoms: _690  and  _693
REMARK  267  A    between atoms: _693  and  _694
REMARK  268  A    between atoms: _724  and  _725
REMARK  269  A    between atoms: _725  and  _731
REMARK                            x       y       z     vdW  Elec       q    Type
REMARK                         _______ _______ _______ _____ _____    ______ ____
ROOT
ATOM      1  O   HOH     1      -0.208  15.391   5.076  0.00  0.00    +0.000 OA
ENDROOT
TORSDOF 0
REMARK  Name = ../refined-set-2016/1b3h/1b3h_pocket.pdb
REMARK  269 active torsions:
REMARK  status: ('A' for Active; 'I' for Inactive)
REMARK    1  A    between atoms: _1  and  _3
REMARK    2  A    between atoms: _3  and  _4
REMARK    3  A    between atoms: _3  and  _6
REMARK    4  A    between atoms: _6  and  _7
REMARK    5  A    between atoms: _12  and  _14
REMARK    6  A    between atoms: _14  and  _15
REMARK    7  A    between atoms: _17  and  _19
REMARK    8  A    between atoms: _19  and  _20
REMARK    9  A    between atoms: _19  and  _22
REMARK   10  A    between atoms: _22  and  _23
REMARK   11  A    between atoms: _25  and  _27
REMARK   12  A    between atoms: _27  and  _28
REMARK   13  A    between atoms: _27  and  _30
REMARK   14  A    between atoms: _30  and  _31
REMARK   15  A    between atoms: _31  and  _32
REMARK   16  A    between atoms: _37  and  _39
REMARK   17  A    between atoms: _39  and  _40
REMARK   18  A    between atoms: _39  and  _42
REMARK   19  A    between atoms: _42  and  _43
REMARK   20  A    between atoms: _46  and  _48
REMARK   21  A    between atoms: _48  and  _49
REMARK   22  A    between atoms: _48  and  _51
REMARK   23  A    between atoms: _51  and  _52
REMARK   24  A    between atoms: _52  and  _53
REMARK   25  A    between atoms: _56  and  _58
REMARK   26  A    between atoms: _58  and  _59
REMARK   27  A    between atoms: _61  and  _63
REMARK   28  A    between atoms: _63  and  _64
REMARK   29  A    between atoms: _63  and  _66
REMARK   30  A    between atoms: _70  and  _71
REMARK   31  A    between atoms: _76  and  _78
REMARK   32  A    between atoms: _78  and  _79
REMARK   33  A    between atoms: _78  and  _81
REMARK   34  A    between atoms: _81  and  _82
REMARK   35  A    between atoms: _82  and  _83
REMARK   36  A    between atoms: _86  and  _88
REMARK   37  A    between atoms: _88  and  _89
REMARK   38  A    between atoms: _88  and  _91
REMARK   39  A    between atoms: _91  and  _92
REMARK   40  A    between atoms: _94  and  _96
REMARK   41  A    between atoms: _96  and  _97
REMARK   42  A    between atoms: _96  and  _99
REMARK   43  A    between atoms: _99  and  _100
REMARK   44  A    between atoms: _105  and  _107
REMARK   45  A    between atoms: _107  and  _108
REMARK   46  A    between atoms: _107  and  _110
REMARK   47  A    between atoms: _110  and  _111
REMARK   48  A    between atoms: _111  and  _112
REMARK   49  A    between atoms: _112  and  _113
REMARK   50  A    between atoms: _123  and  _124
REMARK   51  A    between atoms: _129  and  _131
REMARK   52  A    between atoms: _131  and  _132
REMARK   53  A    between atoms: _131  and  _134
REMARK   54  A    between atoms: _134  and  _135
REMARK   55  A    between atoms: _140  and  _141
REMARK   56  A    between atoms: _143  and  _145
REMARK   57  A    between atoms: _145  and  _146
REMARK   58  A    between atoms: _145  and  _148
REMARK   59  A    between atoms: _148  and  _149
REMARK   60  A    between atoms: _154  and  _155
REMARK   61  A    between atoms: _157  and  _159
REMARK   62  A    between atoms: _159  and  _160
REMARK   63  A    between atoms: _159  and  _162
REMARK   64  A    between atoms: _162  and  _163
REMARK   65  A    between atoms: _168  and  _169
REMARK   66  A    between atoms: _171  and  _173
REMARK   67  A    between atoms: _173  and  _174
REMARK   68  A    between atoms: _173  and  _176
REMARK   69  A    between atoms: _179  and  _181
REMARK   70  A    between atoms: _181  and  _182
REMARK   71  A    between atoms: _181  and  _184
REMARK   72  A    between atoms: _184  and  _185
REMARK   73  A    between atoms: _191  and  _192
REMARK   74  A    between atoms: _197  and  _199
REMARK   75  A    between atoms: _199  and  _200
REMARK   76  A    between atoms: _199  and  _202
REMARK   77  A    between atoms: _202  and  _203
REMARK   78  A    between atoms: _205  and  _207
REMARK   79  A    between atoms: _207  and  _208
REMARK   80  A    between atoms: _207  and  _210
REMARK   81  A    between atoms: _210  and  _211
REMARK   82  A    between atoms: _216  and  _217
REMARK   83  A    between atoms: _219  and  _221
REMARK   84  A    between atoms: _221  and  _222
REMARK   85  A    between atoms: _221  and  _224
REMARK   86  A    between atoms: _224  and  _225
REMARK   87  A    between atoms: _230  and  _232
REMARK   88  A    between atoms: _232  and  _233
REMARK   89  A    between atoms: _232  and  _235
REMARK   90  A    between atoms: _235  and  _236
REMARK   91  A    between atoms: _241  and  _243
REMARK   92  A    between atoms: _243  and  _244
REMARK   93  A    between atoms: _243  and  _246
REMARK   94  A    between atoms: _246  and  _247
REMARK   95  A    between atoms: _247  and  _248
REMARK   96  A    between atoms: _250  and  _252
REMARK   97  A    between atoms: _252  and  _253
REMARK   98  A    between atoms: _252  and  _255
REMARK   99  A    between atoms: _255  and  _256
REMARK  100  A    between atoms: _261  and  _262
REMARK  101  A    between atoms: _264  and  _266
REMARK  102  A    between atoms: _266  and  _267
REMARK  103  A    between atoms: _266  and  _269
REMARK  104  A    between atoms: _269  and  _270
REMARK  105  A    between atoms: _273  and  _275
REMARK  106  A    between atoms: _275  and  _276
REMARK  107  A    between atoms: _275  and  _278
REMARK  108  A    between atoms: _278  and  _279
REMARK  109  A    between atoms: _279  and  _496
REMARK  110  A    between atoms: _280  and  _282
REMARK  111  A    between atoms: _282  and  _283
REMARK  112  A    between atoms: _282  and  _285
REMARK  113  A    between atoms: _285  and  _286
REMARK  114  A    between atoms: _289  and  _291
REMARK  115  A    between atoms: _291  and  _292
REMARK  116  A    between atoms: _291  and  _294
REMARK  117  A    between atoms: _294  and  _295
REMARK  118  A    between atoms: _300  and  _301
REMARK  119  A    between atoms: _303  and  _305
REMARK  120  A    between atoms: _305  and  _306
REMARK  121  A    between atoms: _305  and  _308
REMARK  122  A    between atoms: _308  and  _309
REMARK  123  A    between atoms: _314  and  _315
REMARK  124  A    between atoms: _317  and  _319
REMARK  125  A    between atoms: _319  and  _320
REMARK  126  A    between atoms: _319  and  _322
REMARK  127  A    between atoms: _322  and  _323
REMARK  128  A    between atoms: _323  and  _324
REMARK  129  A    between atoms: _327  and  _329
REMARK  130  A    between atoms: _329  and  _330
REMARK  131  A    between atoms: _329  and  _332
REMARK  132  A    between atoms: _332  and  _333
REMARK  133  A    between atoms: _338  and  _339
REMARK  134  A    between atoms: _341  and  _343
REMARK  135  A    between atoms: _343  and  _344
REMARK  136  A    between atoms: _343  and  _346
REMARK  137  A    between atoms: _346  and  _347
REMARK  138  A    between atoms: _352  and  _354
REMARK  139  A    between atoms: _354  and  _355
REMARK  140  A    between atoms: _354  and  _357
REMARK  141  A    between atoms: _357  and  _358
REMARK  142  A    between atoms: _361  and  _363
REMARK  143  A    between atoms: _363  and  _364
REMARK  144  A    between atoms: _363  and  _366
REMARK  145  A    between atoms: _366  and  _367
REMARK  146  A    between atoms: _372  and  _374
REMARK  147  A    between atoms: _374  and  _375
REMARK  148  A    between atoms: _374  and  _377
REMARK  149  A    between atoms: _377  and  _378
REMARK  150  A    between atoms: _388  and  _390
REMARK  151  A    between atoms: _390  and  _391
REMARK  152  A    between atoms: _390  and  _393
REMARK  153  A    between atoms: _393  and  _394
REMARK  154  A    between atoms: _400  and  _402
REMARK  155  A    between atoms: _402  and  _403
REMARK  156  A    between atoms: _402  and  _405
REMARK  157  A    between atoms: _405  and  _406
REMARK  158  A    between atoms: _409  and  _411
REMARK  159  A    between atoms: _411  and  _412
REMARK  160  A    between atoms: _411  and  _414
REMARK  161  A    between atoms: _414  and  _415
REMARK  162  A    between atoms: _418  and  _420
REMARK  163  A    between atoms: _420  and  _421
REMARK  164  A    between atoms: _420  and  _423
REMARK  165  A    between atoms: _423  and  _424
REMARK  166  A    between atoms: _424  and  _425
REMARK  167  A    between atoms: _425  and  _426
REMARK  168  A    between atoms: _435  and  _437
REMARK  169  A    between atoms: _437  and  _438
REMARK  170  A    between atoms: _437  and  _440
REMARK  171  A    between atoms: _440  and  _441
REMARK  172  A    between atoms: _446  and  _448
REMARK  173  A    between atoms: _448  and  _449
REMARK  174  A    between atoms: _448  and  _451
REMARK  175  A    between atoms: _451  and  _452
REMARK  176  A    between atoms: _452  and  _453
REMARK  177  A    between atoms: _453  and  _454
REMARK  178  A    between atoms: _463  and  _465
REMARK  179  A    between atoms: _465  and  _466
REMARK  180  A    between atoms: _469  and  _471
REMARK  181  A    between atoms: _471  and  _472
REMARK  182  A    between atoms: _474  and  _476
REMARK  183  A    between atoms: _476  and  _477
REMARK  184  A    between atoms: _476  and  _479
REMARK  185  A    between atoms: _479  and  _480
REMARK  186  A    between atoms: _490  and  _492
REMARK  187  A    between atoms: _492  and  _493
REMARK  188  A    between atoms: _492  and  _495
REMARK  189  A    between atoms: _495  and  _496
REMARK  190  A    between atoms: _497  and  _499
REMARK  191  A    between atoms: _499  and  _500
REMARK  192  A    between atoms: _503  and  _505
REMARK  193  A    between atoms: _505  and  _506
REMARK  194  A    between atoms: _505  and  _508
REMARK  195  A    between atoms: _508  and  _509
REMARK  196  A    between atoms: _512  and  _514
REMARK  197  A    between atoms: _514  and  _515
REMARK  198  A    between atoms: _514  and  _517
REMARK  199  A    between atoms: _517  and  _518
REMARK  200  A    between atoms: _523  and  _524
REMARK  201  A    between atoms: _526  and  _528
REMARK  202  A    between atoms: _528  and  _529
REMARK  203  A    between atoms: _528  and  _531
REMARK  204  A    between atoms: _531  and  _532
REMARK  205  A    between atoms: _534  and  _536
REMARK  206  A    between atoms: _536  and  _537
REMARK  207  A    between atoms: _536  and  _539
REMARK  208  A    between atoms: _539  and  _540
REMARK  209  A    between atoms: _546  and  _548
REMARK  210  A    between atoms: _548  and  _549
REMARK  211  A    between atoms: _548  and  _551
REMARK  212  A    between atoms: _551  and  _552
REMARK  213  A    between atoms: _555  and  _557
REMARK  214  A    between atoms: _557  and  _558
REMARK  215  A    between atoms: _557  and  _560
REMARK  216  A    between atoms: _560  and  _561
REMARK  217  A    between atoms: _563  and  _565
REMARK  218  A    between atoms: _565  and  _566
REMARK  219  A    between atoms: _565  and  _568
REMARK  220  A    between atoms: _568  and  _569
REMARK  221  A    between atoms: _574  and  _576
REMARK  222  A    between atoms: _576  and  _577
REMARK  223  A    between atoms: _576  and  _579
REMARK  224  A    between atoms: _579  and  _580
REMARK  225  A    between atoms: _585  and  _587
REMARK  226  A    between atoms: _587  and  _588
REMARK  227  A    between atoms: _587  and  _590
REMARK  228  A    between atoms: _590  and  _591
REMARK  229  A    between atoms: _594  and  _596
REMARK  230  A    between atoms: _596  and  _597
REMARK  231  A    between atoms: _600  and  _602
REMARK  232  A    between atoms: _602  and  _603
REMARK  233  A    between atoms: _602  and  _605
REMARK  234  A    between atoms: _605  and  _606
REMARK  235  A    between atoms: _611  and  _612
REMARK  236  A    between atoms: _614  and  _616
REMARK  237  A    between atoms: _616  and  _617
REMARK  238  A    between atoms: _616  and  _619
REMARK  239  A    between atoms: _619  and  _620
REMARK  240  A    between atoms: _625  and  _626
REMARK  241  A    between atoms: _628  and  _630
REMARK  242  A    between atoms: _630  and  _631
REMARK  243  A    between atoms: _630  and  _633
REMARK  244  A    between atoms: _636  and  _638
REMARK  245  A    between atoms: _638  and  _639
REMARK  246  A    between atoms: _638  and  _641
REMARK  247  A    between atoms: _641  and  _642
REMARK  248  A    between atoms: _647  and  _649
REMARK  249  A    between atoms: _649  and  _650
REMARK  250  A    between atoms: _653  and  _655
REMARK  251  A    between atoms: _655  and  _656
REMARK  252  A    between atoms: _655  and  _658
REMARK  253  A    between atoms: _658  and  _659
REMARK  254  A    between atoms: _659  and  _660
REMARK  255  A    between atoms: _660  and  _661
REMARK  256  A    between atoms: _670  and  _672
REMARK  257  A    between atoms: _672  and  _673
REMARK  258  A    between atoms: _672  and  _675
REMARK  259  A    between atoms: _675  and  _676
REMARK  260  A    between atoms: _679  and  _681
REMARK  261  A    between atoms: _681  and  _682
REMARK  262  A    between atoms: _681  and  _684
REMARK  263  A    between atoms: _684  and  _685
REMARK  264  A    between atoms: _688  and  _690
REMARK  265  A    between atoms: _690  and  _691
REMARK  266  A    between atoms: _690  and  _693
REMARK  267  A    between atoms: _693  and  _694
REMARK  268  A    between atoms: _724  and  _725
REMARK  269  A    between atoms: _725  and  _731
REMARK                            x       y       z     vdW  Elec       q    Type
REMARK                         _______ _______ _______ _____ _____    ______ ____
ROOT
ATOM      1  O   HOH     1      11.394  13.782  16.659  0.00  0.00    +0.000 OA
ENDROOT
TORSDOF 0
REMARK  Name = ../refined-set-2016/1b3h/1b3h_pocket.pdb
REMARK  269 active torsions:
REMARK  status: ('A' for Active; 'I' for Inactive)
REMARK    1  A    between atoms: _1  and  _3
REMARK    2  A    between atoms: _3  and  _4
REMARK    3  A    between atoms: _3  and  _6
REMARK    4  A    between atoms: _6  and  _7
REMARK    5  A    between atoms: _12  and  _14
REMARK    6  A    between atoms: _14  and  _15
REMARK    7  A    between atoms: _17  and  _19
REMARK    8  A    between atoms: _19  and  _20
REMARK    9  A    between atoms: _19  and  _22
REMARK   10  A    between atoms: _22  and  _23
REMARK   11  A    between atoms: _25  and  _27
REMARK   12  A    between atoms: _27  and  _28
REMARK   13  A    between atoms: _27  and  _30
REMARK   14  A    between atoms: _30  and  _31
REMARK   15  A    between atoms: _31  and  _32
REMARK   16  A    between atoms: _37  and  _39
REMARK   17  A    between atoms: _39  and  _40
REMARK   18  A    between atoms: _39  and  _42
REMARK   19  A    between atoms: _42  and  _43
REMARK   20  A    between atoms: _46  and  _48
REMARK   21  A    between atoms: _48  and  _49
REMARK   22  A    between atoms: _48  and  _51
REMARK   23  A    between atoms: _51  and  _52
REMARK   24  A    between atoms: _52  and  _53
REMARK   25  A    between atoms: _56  and  _58
REMARK   26  A    between atoms: _58  and  _59
REMARK   27  A    between atoms: _61  and  _63
REMARK   28  A    between atoms: _63  and  _64
REMARK   29  A    between atoms: _63  and  _66
REMARK   30  A    between atoms: _70  and  _71
REMARK   31  A    between atoms: _76  and  _78
REMARK   32  A    between atoms: _78  and  _79
REMARK   33  A    between atoms: _78  and  _81
REMARK   34  A    between atoms: _81  and  _82
REMARK   35  A    between atoms: _82  and  _83
REMARK   36  A    between atoms: _86  and  _88
REMARK   37  A    between atoms: _88  and  _89
REMARK   38  A    between atoms: _88  and  _91
REMARK   39  A    between atoms: _91  and  _92
REMARK   40  A    between atoms: _94  and  _96
REMARK   41  A    between atoms: _96  and  _97
REMARK   42  A    between atoms: _96  and  _99
REMARK   43  A    between atoms: _99  and  _100
REMARK   44  A    between atoms: _105  and  _107
REMARK   45  A    between atoms: _107  and  _108
REMARK   46  A    between atoms: _107  and  _110
REMARK   47  A    between atoms: _110  and  _111
REMARK   48  A    between atoms: _111  and  _112
REMARK   49  A    between atoms: _112  and  _113
REMARK   50  A    between atoms: _123  and  _124
REMARK   51  A    between atoms: _129  and  _131
REMARK   52  A    between atoms: _131  and  _132
REMARK   53  A    between atoms: _131  and  _134
REMARK   54  A    between atoms: _134  and  _135
REMARK   55  A    between atoms: _140  and  _141
REMARK   56  A    between atoms: _143  and  _145
REMARK   57  A    between atoms: _145  and  _146
REMARK   58  A    between atoms: _145  and  _148
REMARK   59  A    between atoms: _148  and  _149
REMARK   60  A    between atoms: _154  and  _155
REMARK   61  A    between atoms: _157  and  _159
REMARK   62  A    between atoms: _159  and  _160
REMARK   63  A    between atoms: _159  and  _162
REMARK   64  A    between atoms: _162  and  _163
REMARK   65  A    between atoms: _168  and  _169
REMARK   66  A    between atoms: _171  and  _173
REMARK   67  A    between atoms: _173  and  _174
REMARK   68  A    between atoms: _173  and  _176
REMARK   69  A    between atoms: _179  and  _181
REMARK   70  A    between atoms: _181  and  _182
REMARK   71  A    between atoms: _181  and  _184
REMARK   72  A    between atoms: _184  and  _185
REMARK   73  A    between atoms: _191  and  _192
REMARK   74  A    between atoms: _197  and  _199
REMARK   75  A    between atoms: _199  and  _200
REMARK   76  A    between atoms: _199  and  _202
REMARK   77  A    between atoms: _202  and  _203
REMARK   78  A    between atoms: _205  and  _207
REMARK   79  A    between atoms: _207  and  _208
REMARK   80  A    between atoms: _207  and  _210
REMARK   81  A    between atoms: _210  and  _211
REMARK   82  A    between atoms: _216  and  _217
REMARK   83  A    between atoms: _219  and  _221
REMARK   84  A    between atoms: _221  and  _222
REMARK   85  A    between atoms: _221  and  _224
REMARK   86  A    between atoms: _224  and  _225
REMARK   87  A    between atoms: _230  and  _232
REMARK   88  A    between atoms: _232  and  _233
REMARK   89  A    between atoms: _232  and  _235
REMARK   90  A    between atoms: _235  and  _236
REMARK   91  A    between atoms: _241  and  _243
REMARK   92  A    between atoms: _243  and  _244
REMARK   93  A    between atoms: _243  and  _246
REMARK   94  A    between atoms: _246  and  _247
REMARK   95  A    between atoms: _247  and  _248
REMARK   96  A    between atoms: _250  and  _252
REMARK   97  A    between atoms: _252  and  _253
REMARK   98  A    between atoms: _252  and  _255
REMARK   99  A    between atoms: _255  and  _256
REMARK  100  A    between atoms: _261  and  _262
REMARK  101  A    between atoms: _264  and  _266
REMARK  102  A    between atoms: _266  and  _267
REMARK  103  A    between atoms: _266  and  _269
REMARK  104  A    between atoms: _269  and  _270
REMARK  105  A    between atoms: _273  and  _275
REMARK  106  A    between atoms: _275  and  _276
REMARK  107  A    between atoms: _275  and  _278
REMARK  108  A    between atoms: _278  and  _279
REMARK  109  A    between atoms: _279  and  _496
REMARK  110  A    between atoms: _280  and  _282
REMARK  111  A    between atoms: _282  and  _283
REMARK  112  A    between atoms: _282  and  _285
REMARK  113  A    between atoms: _285  and  _286
REMARK  114  A    between atoms: _289  and  _291
REMARK  115  A    between atoms: _291  and  _292
REMARK  116  A    between atoms: _291  and  _294
REMARK  117  A    between atoms: _294  and  _295
REMARK  118  A    between atoms: _300  and  _301
REMARK  119  A    between atoms: _303  and  _305
REMARK  120  A    between atoms: _305  and  _306
REMARK  121  A    between atoms: _305  and  _308
REMARK  122  A    between atoms: _308  and  _309
REMARK  123  A    between atoms: _314  and  _315
REMARK  124  A    between atoms: _317  and  _319
REMARK  125  A    between atoms: _319  and  _320
REMARK  126  A    between atoms: _319  and  _322
REMARK  127  A    between atoms: _322  and  _323
REMARK  128  A    between atoms: _323  and  _324
REMARK  129  A    between atoms: _327  and  _329
REMARK  130  A    between atoms: _329  and  _330
REMARK  131  A    between atoms: _329  and  _332
REMARK  132  A    between atoms: _332  and  _333
REMARK  133  A    between atoms: _338  and  _339
REMARK  134  A    between atoms: _341  and  _343
REMARK  135  A    between atoms: _343  and  _344
REMARK  136  A    between atoms: _343  and  _346
REMARK  137  A    between atoms: _346  and  _347
REMARK  138  A    between atoms: _352  and  _354
REMARK  139  A    between atoms: _354  and  _355
REMARK  140  A    between atoms: _354  and  _357
REMARK  141  A    between atoms: _357  and  _358
REMARK  142  A    between atoms: _361  and  _363
REMARK  143  A    between atoms: _363  and  _364
REMARK  144  A    between atoms: _363  and  _366
REMARK  145  A    between atoms: _366  and  _367
REMARK  146  A    between atoms: _372  and  _374
REMARK  147  A    between atoms: _374  and  _375
REMARK  148  A    between atoms: _374  and  _377
REMARK  149  A    between atoms: _377  and  _378
REMARK  150  A    between atoms: _388  and  _390
REMARK  151  A    between atoms: _390  and  _391
REMARK  152  A    between atoms: _390  and  _393
REMARK  153  A    between atoms: _393  and  _394
REMARK  154  A    between atoms: _400  and  _402
REMARK  155  A    between atoms: _402  and  _403
REMARK  156  A    between atoms: _402  and  _405
REMARK  157  A    between atoms: _405  and  _406
REMARK  158  A    between atoms: _409  and  _411
REMARK  159  A    between atoms: _411  and  _412
REMARK  160  A    between atoms: _411  and  _414
REMARK  161  A    between atoms: _414  and  _415
REMARK  162  A    between atoms: _418  and  _420
REMARK  163  A    between atoms: _420  and  _421
REMARK  164  A    between atoms: _420  and  _423
REMARK  165  A    between atoms: _423  and  _424
REMARK  166  A    between atoms: _424  and  _425
REMARK  167  A    between atoms: _425  and  _426
REMARK  168  A    between atoms: _435  and  _437
REMARK  169  A    between atoms: _437  and  _438
REMARK  170  A    between atoms: _437  and  _440
REMARK  171  A    between atoms: _440  and  _441
REMARK  172  A    between atoms: _446  and  _448
REMARK  173  A    between atoms: _448  and  _449
REMARK  174  A    between atoms: _448  and  _451
REMARK  175  A    between atoms: _451  and  _452
REMARK  176  A    between atoms: _452  and  _453
REMARK  177  A    between atoms: _453  and  _454
REMARK  178  A    between atoms: _463  and  _465
REMARK  179  A    between atoms: _465  and  _466
REMARK  180  A    between atoms: _469  and  _471
REMARK  181  A    between atoms: _471  and  _472
REMARK  182  A    between atoms: _474  and  _476
REMARK  183  A    between atoms: _476  and  _477
REMARK  184  A    between atoms: _476  and  _479
REMARK  185  A    between atoms: _479  and  _480
REMARK  186  A    between atoms: _490  and  _492
REMARK  187  A    between atoms: _492  and  _493
REMARK  188  A    between atoms: _492  and  _495
REMARK  189  A    between atoms: _495  and  _496
REMARK  190  A    between atoms: _497  and  _499
REMARK  191  A    between atoms: _499  and  _500
REMARK  192  A    between atoms: _503  and  _505
REMARK  193  A    between atoms: _505  and  _506
REMARK  194  A    between atoms: _505  and  _508
REMARK  195  A    between atoms: _508  and  _509
REMARK  196  A    between atoms: _512  and  _514
REMARK  197  A    between atoms: _514  and  _515
REMARK  198  A    between atoms: _514  and  _517
REMARK  199  A    between atoms: _517  and  _518
REMARK  200  A    between atoms: _523  and  _524
REMARK  201  A    between atoms: _526  and  _528
REMARK  202  A    between atoms: _528  and  _529
REMARK  203  A    between atoms: _528  and  _531
REMARK  204  A    between atoms: _531  and  _532
REMARK  205  A    between atoms: _534  and  _536
REMARK  206  A    between atoms: _536  and  _537
REMARK  207  A    between atoms: _536  and  _539
REMARK  208  A    between atoms: _539  and  _540
REMARK  209  A    between atoms: _546  and  _548
REMARK  210  A    between atoms: _548  and  _549
REMARK  211  A    between atoms: _548  and  _551
REMARK  212  A    between atoms: _551  and  _552
REMARK  213  A    between atoms: _555  and  _557
REMARK  214  A    between atoms: _557  and  _558
REMARK  215  A    between atoms: _557  and  _560
REMARK  216  A    between atoms: _560  and  _561
REMARK  217  A    between atoms: _563  and  _565
REMARK  218  A    between atoms: _565  and  _566
REMARK  219  A    between atoms: _565  and  _568
REMARK  220  A    between atoms: _568  and  _569
REMARK  221  A    between atoms: _574  and  _576
REMARK  222  A    between atoms: _576  and  _577
REMARK  223  A    between atoms: _576  and  _579
REMARK  224  A    between atoms: _579  and  _580
REMARK  225  A    between atoms: _585  and  _587
REMARK  226  A    between atoms: _587  and  _588
REMARK  227  A    between atoms: _587  and  _590
REMARK  228  A    between atoms: _590  and  _591
REMARK  229  A    between atoms: _594  and  _596
REMARK  230  A    between atoms: _596  and  _597
REMARK  231  A    between atoms: _600  and  _602
REMARK  232  A    between atoms: _602  and  _603
REMARK  233  A    between atoms: _602  and  _605
REMARK  234  A    between atoms: _605  and  _606
REMARK  235  A    between atoms: _611  and  _612
REMARK  236  A    between atoms: _614  and  _616
REMARK  237  A    between atoms: _616  and  _617
REMARK  238  A    between atoms: _616  and  _619
REMARK  239  A    between atoms: _619  and  _620
REMARK  240  A    between atoms: _625  and  _626
REMARK  241  A    between atoms: _628  and  _630
REMARK  242  A    between atoms: _630  and  _631
REMARK  243  A    between atoms: _630  and  _633
REMARK  244  A    between atoms: _636  and  _638
REMARK  245  A    between atoms: _638  and  _639
REMARK  246  A    between atoms: _638  and  _641
REMARK  247  A    between atoms: _641  and  _642
REMARK  248  A    between atoms: _647  and  _649
REMARK  249  A    between atoms: _649  and  _650
REMARK  250  A    between atoms: _653  and  _655
REMARK  251  A    between atoms: _655  and  _656
REMARK  252  A    between atoms: _655  and  _658
REMARK  253  A    between atoms: _658  and  _659
REMARK  254  A    between atoms: _659  and  _660
REMARK  255  A    between atoms: _660  and  _661
REMARK  256  A    between atoms: _670  and  _672
REMARK  257  A    between atoms: _672  and  _673
REMARK  258  A    between atoms: _672  and  _675
REMARK  259  A    between atoms: _675  and  _676
REMARK  260  A    between atoms: _679  and  _681
REMARK  261  A    between atoms: _681  and  _682
REMARK  262  A    between atoms: _681  and  _684
REMARK  263  A    between atoms: _684  and  _685
REMARK  264  A    between atoms: _688  and  _690
REMARK  265  A    between atoms: _690  and  _691
REMARK  266  A    between atoms: _690  and  _693
REMARK  267  A    between atoms: _693  and  _694
REMARK  268  A    between atoms: _724  and  _725
REMARK  269  A    between atoms: _725  and  _731
REMARK                            x       y       z     vdW  Elec       q    Type
REMARK                         _______ _______ _______ _____ _____    ______ ____
ROOT
ATOM      1  O   HOH     1      10.909  23.361  17.913  0.00  0.00    +0.000 OA
ENDROOT
TORSDOF 0
REMARK  Name = ../refined-set-2016/1b3h/1b3h_pocket.pdb
REMARK  269 active torsions:
REMARK  status: ('A' for Active; 'I' for Inactive)
REMARK    1  A    between atoms: _1  and  _3
REMARK    2  A    between atoms: _3  and  _4
REMARK    3  A    between atoms: _3  and  _6
REMARK    4  A    between atoms: _6  and  _7
REMARK    5  A    between atoms: _12  and  _14
REMARK    6  A    between atoms: _14  and  _15
REMARK    7  A    between atoms: _17  and  _19
REMARK    8  A    between atoms: _19  and  _20
REMARK    9  A    between atoms: _19  and  _22
REMARK   10  A    between atoms: _22  and  _23
REMARK   11  A    between atoms: _25  and  _27
REMARK   12  A    between atoms: _27  and  _28
REMARK   13  A    between atoms: _27  and  _30
REMARK   14  A    between atoms: _30  and  _31
REMARK   15  A    between atoms: _31  and  _32
REMARK   16  A    between atoms: _37  and  _39
REMARK   17  A    between atoms: _39  and  _40
REMARK   18  A    between atoms: _39  and  _42
REMARK   19  A    between atoms: _42  and  _43
REMARK   20  A    between atoms: _46  and  _48
REMARK   21  A    between atoms: _48  and  _49
REMARK   22  A    between atoms: _48  and  _51
REMARK   23  A    between atoms: _51  and  _52
REMARK   24  A    between atoms: _52  and  _53
REMARK   25  A    between atoms: _56  and  _58
REMARK   26  A    between atoms: _58  and  _59
REMARK   27  A    between atoms: _61  and  _63
REMARK   28  A    between atoms: _63  and  _64
REMARK   29  A    between atoms: _63  and  _66
REMARK   30  A    between atoms: _70  and  _71
REMARK   31  A    between atoms: _76  and  _78
REMARK   32  A    between atoms: _78  and  _79
REMARK   33  A    between atoms: _78  and  _81
REMARK   34  A    between atoms: _81  and  _82
REMARK   35  A    between atoms: _82  and  _83
REMARK   36  A    between atoms: _86  and  _88
REMARK   37  A    between atoms: _88  and  _89
REMARK   38  A    between atoms: _88  and  _91
REMARK   39  A    between atoms: _91  and  _92
REMARK   40  A    between atoms: _94  and  _96
REMARK   41  A    between atoms: _96  and  _97
REMARK   42  A    between atoms: _96  and  _99
REMARK   43  A    between atoms: _99  and  _100
REMARK   44  A    between atoms: _105  and  _107
REMARK   45  A    between atoms: _107  and  _108
REMARK   46  A    between atoms: _107  and  _110
REMARK   47  A    between atoms: _110  and  _111
REMARK   48  A    between atoms: _111  and  _112
REMARK   49  A    between atoms: _112  and  _113
REMARK   50  A    between atoms: _123  and  _124
REMARK   51  A    between atoms: _129  and  _131
REMARK   52  A    between atoms: _131  and  _132
REMARK   53  A    between atoms: _131  and  _134
REMARK   54  A    between atoms: _134  and  _135
REMARK   55  A    between atoms: _140  and  _141
REMARK   56  A    between atoms: _143  and  _145
REMARK   57  A    between atoms: _145  and  _146
REMARK   58  A    between atoms: _145  and  _148
REMARK   59  A    between atoms: _148  and  _149
REMARK   60  A    between atoms: _154  and  _155
REMARK   61  A    between atoms: _157  and  _159
REMARK   62  A    between atoms: _159  and  _160
REMARK   63  A    between atoms: _159  and  _162
REMARK   64  A    between atoms: _162  and  _163
REMARK   65  A    between atoms: _168  and  _169
REMARK   66  A    between atoms: _171  and  _173
REMARK   67  A    between atoms: _173  and  _174
REMARK   68  A    between atoms: _173  and  _176
REMARK   69  A    between atoms: _179  and  _181
REMARK   70  A    between atoms: _181  and  _182
REMARK   71  A    between atoms: _181  and  _184
REMARK   72  A    between atoms: _184  and  _185
REMARK   73  A    between atoms: _191  and  _192
REMARK   74  A    between atoms: _197  and  _199
REMARK   75  A    between atoms: _199  and  _200
REMARK   76  A    between atoms: _199  and  _202
REMARK   77  A    between atoms: _202  and  _203
REMARK   78  A    between atoms: _205  and  _207
REMARK   79  A    between atoms: _207  and  _208
REMARK   80  A    between atoms: _207  and  _210
REMARK   81  A    between atoms: _210  and  _211
REMARK   82  A    between atoms: _216  and  _217
REMARK   83  A    between atoms: _219  and  _221
REMARK   84  A    between atoms: _221  and  _222
REMARK   85  A    between atoms: _221  and  _224
REMARK   86  A    between atoms: _224  and  _225
REMARK   87  A    between atoms: _230  and  _232
REMARK   88  A    between atoms: _232  and  _233
REMARK   89  A    between atoms: _232  and  _235
REMARK   90  A    between atoms: _235  and  _236
REMARK   91  A    between atoms: _241  and  _243
REMARK   92  A    between atoms: _243  and  _244
REMARK   93  A    between atoms: _243  and  _246
REMARK   94  A    between atoms: _246  and  _247
REMARK   95  A    between atoms: _247  and  _248
REMARK   96  A    between atoms: _250  and  _252
REMARK   97  A    between atoms: _252  and  _253
REMARK   98  A    between atoms: _252  and  _255
REMARK   99  A    between atoms: _255  and  _256
REMARK  100  A    between atoms: _261  and  _262
REMARK  101  A    between atoms: _264  and  _266
REMARK  102  A    between atoms: _266  and  _267
REMARK  103  A    between atoms: _266  and  _269
REMARK  104  A    between atoms: _269  and  _270
REMARK  105  A    between atoms: _273  and  _275
REMARK  106  A    between atoms: _275  and  _276
REMARK  107  A    between atoms: _275  and  _278
REMARK  108  A    between atoms: _278  and  _279
REMARK  109  A    between atoms: _279  and  _496
REMARK  110  A    between atoms: _280  and  _282
REMARK  111  A    between atoms: _282  and  _283
REMARK  112  A    between atoms: _282  and  _285
REMARK  113  A    between atoms: _285  and  _286
REMARK  114  A    between atoms: _289  and  _291
REMARK  115  A    between atoms: _291  and  _292
REMARK  116  A    between atoms: _291  and  _294
REMARK  117  A    between atoms: _294  and  _295
REMARK  118  A    between atoms: _300  and  _301
REMARK  119  A    between atoms: _303  and  _305
REMARK  120  A    between atoms: _305  and  _306
REMARK  121  A    between atoms: _305  and  _308
REMARK  122  A    between atoms: _308  and  _309
REMARK  123  A    between atoms: _314  and  _315
REMARK  124  A    between atoms: _317  and  _319
REMARK  125  A    between atoms: _319  and  _320
REMARK  126  A    between atoms: _319  and  _322
REMARK  127  A    between atoms: _322  and  _323
REMARK  128  A    between atoms: _323  and  _324
REMARK  129  A    between atoms: _327  and  _329
REMARK  130  A    between atoms: _329  and  _330
REMARK  131  A    between atoms: _329  and  _332
REMARK  132  A    between atoms: _332  and  _333
REMARK  133  A    between atoms: _338  and  _339
REMARK  134  A    between atoms: _341  and  _343
REMARK  135  A    between atoms: _343  and  _344
REMARK  136  A    between atoms: _343  and  _346
REMARK  137  A    between atoms: _346  and  _347
REMARK  138  A    between atoms: _352  and  _354
REMARK  139  A    between atoms: _354  and  _355
REMARK  140  A    between atoms: _354  and  _357
REMARK  141  A    between atoms: _357  and  _358
REMARK  142  A    between atoms: _361  and  _363
REMARK  143  A    between atoms: _363  and  _364
REMARK  144  A    between atoms: _363  and  _366
REMARK  145  A    between atoms: _366  and  _367
REMARK  146  A    between atoms: _372  and  _374
REMARK  147  A    between atoms: _374  and  _375
REMARK  148  A    between atoms: _374  and  _377
REMARK  149  A    between atoms: _377  and  _378
REMARK  150  A    between atoms: _388  and  _390
REMARK  151  A    between atoms: _390  and  _391
REMARK  152  A    between atoms: _390  and  _393
REMARK  153  A    between atoms: _393  and  _394
REMARK  154  A    between atoms: _400  and  _402
REMARK  155  A    between atoms: _402  and  _403
REMARK  156  A    between atoms: _402  and  _405
REMARK  157  A    between atoms: _405  and  _406
REMARK  158  A    between atoms: _409  and  _411
REMARK  159  A    between atoms: _411  and  _412
REMARK  160  A    between atoms: _411  and  _414
REMARK  161  A    between atoms: _414  and  _415
REMARK  162  A    between atoms: _418  and  _420
REMARK  163  A    between atoms: _420  and  _421
REMARK  164  A    between atoms: _420  and  _423
REMARK  165  A    between atoms: _423  and  _424
REMARK  166  A    between atoms: _424  and  _425
REMARK  167  A    between atoms: _425  and  _426
REMARK  168  A    between atoms: _435  and  _437
REMARK  169  A    between atoms: _437  and  _438
REMARK  170  A    between atoms: _437  and  _440
REMARK  171  A    between atoms: _440  and  _441
REMARK  172  A    between atoms: _446  and  _448
REMARK  173  A    between atoms: _448  and  _449
REMARK  174  A    between atoms: _448  and  _451
REMARK  175  A    between atoms: _451  and  _452
REMARK  176  A    between atoms: _452  and  _453
REMARK  177  A    between atoms: _453  and  _454
REMARK  178  A    between atoms: _463  and  _465
REMARK  179  A    between atoms: _465  and  _466
REMARK  180  A    between atoms: _469  and  _471
REMARK  181  A    between atoms: _471  and  _472
REMARK  182  A    between atoms: _474  and  _476
REMARK  183  A    between atoms: _476  and  _477
REMARK  184  A    between atoms: _476  and  _479
REMARK  185  A    between atoms: _479  and  _480
REMARK  186  A    between atoms: _490  and  _492
REMARK  187  A    between atoms: _492  and  _493
REMARK  188  A    between atoms: _492  and  _495
REMARK  189  A    between atoms: _495  and  _496
REMARK  190  A    between atoms: _497  and  _499
REMARK  191  A    between atoms: _499  and  _500
REMARK  192  A    between atoms: _503  and  _505
REMARK  193  A    between atoms: _505  and  _506
REMARK  194  A    between atoms: _505  and  _508
REMARK  195  A    between atoms: _508  and  _509
REMARK  196  A    between atoms: _512  and  _514
REMARK  197  A    between atoms: _514  and  _515
REMARK  198  A    between atoms: _514  and  _517
REMARK  199  A    between atoms: _517  and  _518
REMARK  200  A    between atoms: _523  and  _524
REMARK  201  A    between atoms: _526  and  _528
REMARK  202  A    between atoms: _528  and  _529
REMARK  203  A    between atoms: _528  and  _531
REMARK  204  A    between atoms: _531  and  _532
REMARK  205  A    between atoms: _534  and  _536
REMARK  206  A    between atoms: _536  and  _537
REMARK  207  A    between atoms: _536  and  _539
REMARK  208  A    between atoms: _539  and  _540
REMARK  209  A    between atoms: _546  and  _548
REMARK  210  A    between atoms: _548  and  _549
REMARK  211  A    between atoms: _548  and  _551
REMARK  212  A    between atoms: _551  and  _552
REMARK  213  A    between atoms: _555  and  _557
REMARK  214  A    between atoms: _557  and  _558
REMARK  215  A    between atoms: _557  and  _560
REMARK  216  A    between atoms: _560  and  _561
REMARK  217  A    between atoms: _563  and  _565
REMARK  218  A    between atoms: _565  and  _566
REMARK  219  A    between atoms: _565  and  _568
REMARK  220  A    between atoms: _568  and  _569
REMARK  221  A    between atoms: _574  and  _576
REMARK  222  A    between atoms: _576  and  _577
REMARK  223  A    between atoms: _576  and  _579
REMARK  224  A    between atoms: _579  and  _580
REMARK  225  A    between atoms: _585  and  _587
REMARK  226  A    between atoms: _587  and  _588
REMARK  227  A    between atoms: _587  and  _590
REMARK  228  A    between atoms: _590  and  _591
REMARK  229  A    between atoms: _594  and  _596
REMARK  230  A    between atoms: _596  and  _597
REMARK  231  A    between atoms: _600  and  _602
REMARK  232  A    between atoms: _602  and  _603
REMARK  233  A    between atoms: _602  and  _605
REMARK  234  A    between atoms: _605  and  _606
REMARK  235  A    between atoms: _611  and  _612
REMARK  236  A    between atoms: _614  and  _616
REMARK  237  A    between atoms: _616  and  _617
REMARK  238  A    between atoms: _616  and  _619
REMARK  239  A    between atoms: _619  and  _620
REMARK  240  A    between atoms: _625  and  _626
REMARK  241  A    between atoms: _628  and  _630
REMARK  242  A    between atoms: _630  and  _631
REMARK  243  A    between atoms: _630  and  _633
REMARK  244  A    between atoms: _636  and  _638
REMARK  245  A    between atoms: _638  and  _639
REMARK  246  A    between atoms: _638  and  _641
REMARK  247  A    between atoms: _641  and  _642
REMARK  248  A    between atoms: _647  and  _649
REMARK  249  A    between atoms: _649  and  _650
REMARK  250  A    between atoms: _653  and  _655
REMARK  251  A    between atoms: _655  and  _656
REMARK  252  A    between atoms: _655  and  _658
REMARK  253  A    between atoms: _658  and  _659
REMARK  254  A    between atoms: _659  and  _660
REMARK  255  A    between atoms: _660  and  _661
REMARK  256  A    between atoms: _670  and  _672
REMARK  257  A    between atoms: _672  and  _673
REMARK  258  A    between atoms: _672  and  _675
REMARK  259  A    between atoms: _675  and  _676
REMARK  260  A    between atoms: _679  and  _681
REMARK  261  A    between atoms: _681  and  _682
REMARK  262  A    between atoms: _681  and  _684
REMARK  263  A    between atoms: _684  and  _685
REMARK  264  A    between atoms: _688  and  _690
REMARK  265  A    between atoms: _690  and  _691
REMARK  266  A    between atoms: _690  and  _693
REMARK  267  A    between atoms: _693  and  _694
REMARK  268  A    between atoms: _724  and  _725
REMARK  269  A    between atoms: _725  and  _731
REMARK                            x       y       z     vdW  Elec       q    Type
REMARK                         _______ _______ _______ _____ _____    ______ ____
ROOT
ATOM      1  O   HOH     1       3.507  17.045   8.103  0.00  0.00    +0.000 OA
ENDROOT
TORSDOF 0
REMARK  Name = ../refined-set-2016/1b3h/1b3h_pocket.pdb
REMARK  269 active torsions:
REMARK  status: ('A' for Active; 'I' for Inactive)
REMARK    1  A    between atoms: _1  and  _3
REMARK    2  A    between atoms: _3  and  _4
REMARK    3  A    between atoms: _3  and  _6
REMARK    4  A    between atoms: _6  and  _7
REMARK    5  A    between atoms: _12  and  _14
REMARK    6  A    between atoms: _14  and  _15
REMARK    7  A    between atoms: _17  and  _19
REMARK    8  A    between atoms: _19  and  _20
REMARK    9  A    between atoms: _19  and  _22
REMARK   10  A    between atoms: _22  and  _23
REMARK   11  A    between atoms: _25  and  _27
REMARK   12  A    between atoms: _27  and  _28
REMARK   13  A    between atoms: _27  and  _30
REMARK   14  A    between atoms: _30  and  _31
REMARK   15  A    between atoms: _31  and  _32
REMARK   16  A    between atoms: _37  and  _39
REMARK   17  A    between atoms: _39  and  _40
REMARK   18  A    between atoms: _39  and  _42
REMARK   19  A    between atoms: _42  and  _43
REMARK   20  A    between atoms: _46  and  _48
REMARK   21  A    between atoms: _48  and  _49
REMARK   22  A    between atoms: _48  and  _51
REMARK   23  A    between atoms: _51  and  _52
REMARK   24  A    between atoms: _52  and  _53
REMARK   25  A    between atoms: _56  and  _58
REMARK   26  A    between atoms: _58  and  _59
REMARK   27  A    between atoms: _61  and  _63
REMARK   28  A    between atoms: _63  and  _64
REMARK   29  A    between atoms: _63  and  _66
REMARK   30  A    between atoms: _70  and  _71
REMARK   31  A    between atoms: _76  and  _78
REMARK   32  A    between atoms: _78  and  _79
REMARK   33  A    between atoms: _78  and  _81
REMARK   34  A    between atoms: _81  and  _82
REMARK   35  A    between atoms: _82  and  _83
REMARK   36  A    between atoms: _86  and  _88
REMARK   37  A    between atoms: _88  and  _89
REMARK   38  A    between atoms: _88  and  _91
REMARK   39  A    between atoms: _91  and  _92
REMARK   40  A    between atoms: _94  and  _96
REMARK   41  A    between atoms: _96  and  _97
REMARK   42  A    between atoms: _96  and  _99
REMARK   43  A    between atoms: _99  and  _100
REMARK   44  A    between atoms: _105  and  _107
REMARK   45  A    between atoms: _107  and  _108
REMARK   46  A    between atoms: _107  and  _110
REMARK   47  A    between atoms: _110  and  _111
REMARK   48  A    between atoms: _111  and  _112
REMARK   49  A    between atoms: _112  and  _113
REMARK   50  A    between atoms: _123  and  _124
REMARK   51  A    between atoms: _129  and  _131
REMARK   52  A    between atoms: _131  and  _132
REMARK   53  A    between atoms: _131  and  _134
REMARK   54  A    between atoms: _134  and  _135
REMARK   55  A    between atoms: _140  and  _141
REMARK   56  A    between atoms: _143  and  _145
REMARK   57  A    between atoms: _145  and  _146
REMARK   58  A    between atoms: _145  and  _148
REMARK   59  A    between atoms: _148  and  _149
REMARK   60  A    between atoms: _154  and  _155
REMARK   61  A    between atoms: _157  and  _159
REMARK   62  A    between atoms: _159  and  _160
REMARK   63  A    between atoms: _159  and  _162
REMARK   64  A    between atoms: _162  and  _163
REMARK   65  A    between atoms: _168  and  _169
REMARK   66  A    between atoms: _171  and  _173
REMARK   67  A    between atoms: _173  and  _174
REMARK   68  A    between atoms: _173  and  _176
REMARK   69  A    between atoms: _179  and  _181
REMARK   70  A    between atoms: _181  and  _182
REMARK   71  A    between atoms: _181  and  _184
REMARK   72  A    between atoms: _184  and  _185
REMARK   73  A    between atoms: _191  and  _192
REMARK   74  A    between atoms: _197  and  _199
REMARK   75  A    between atoms: _199  and  _200
REMARK   76  A    between atoms: _199  and  _202
REMARK   77  A    between atoms: _202  and  _203
REMARK   78  A    between atoms: _205  and  _207
REMARK   79  A    between atoms: _207  and  _208
REMARK   80  A    between atoms: _207  and  _210
REMARK   81  A    between atoms: _210  and  _211
REMARK   82  A    between atoms: _216  and  _217
REMARK   83  A    between atoms: _219  and  _221
REMARK   84  A    between atoms: _221  and  _222
REMARK   85  A    between atoms: _221  and  _224
REMARK   86  A    between atoms: _224  and  _225
REMARK   87  A    between atoms: _230  and  _232
REMARK   88  A    between atoms: _232  and  _233
REMARK   89  A    between atoms: _232  and  _235
REMARK   90  A    between atoms: _235  and  _236
REMARK   91  A    between atoms: _241  and  _243
REMARK   92  A    between atoms: _243  and  _244
REMARK   93  A    between atoms: _243  and  _246
REMARK   94  A    between atoms: _246  and  _247
REMARK   95  A    between atoms: _247  and  _248
REMARK   96  A    between atoms: _250  and  _252
REMARK   97  A    between atoms: _252  and  _253
REMARK   98  A    between atoms: _252  and  _255
REMARK   99  A    between atoms: _255  and  _256
REMARK  100  A    between atoms: _261  and  _262
REMARK  101  A    between atoms: _264  and  _266
REMARK  102  A    between atoms: _266  and  _267
REMARK  103  A    between atoms: _266  and  _269
REMARK  104  A    between atoms: _269  and  _270
REMARK  105  A    between atoms: _273  and  _275
REMARK  106  A    between atoms: _275  and  _276
REMARK  107  A    between atoms: _275  and  _278
REMARK  108  A    between atoms: _278  and  _279
REMARK  109  A    between atoms: _279  and  _496
REMARK  110  A    between atoms: _280  and  _282
REMARK  111  A    between atoms: _282  and  _283
REMARK  112  A    between atoms: _282  and  _285
REMARK  113  A    between atoms: _285  and  _286
REMARK  114  A    between atoms: _289  and  _291
REMARK  115  A    between atoms: _291  and  _292
REMARK  116  A    between atoms: _291  and  _294
REMARK  117  A    between atoms: _294  and  _295
REMARK  118  A    between atoms: _300  and  _301
REMARK  119  A    between atoms: _303  and  _305
REMARK  120  A    between atoms: _305  and  _306
REMARK  121  A    between atoms: _305  and  _308
REMARK  122  A    between atoms: _308  and  _309
REMARK  123  A    between atoms: _314  and  _315
REMARK  124  A    between atoms: _317  and  _319
REMARK  125  A    between atoms: _319  and  _320
REMARK  126  A    between atoms: _319  and  _322
REMARK  127  A    between atoms: _322  and  _323
REMARK  128  A    between atoms: _323  and  _324
REMARK  129  A    between atoms: _327  and  _329
REMARK  130  A    between atoms: _329  and  _330
REMARK  131  A    between atoms: _329  and  _332
REMARK  132  A    between atoms: _332  and  _333
REMARK  133  A    between atoms: _338  and  _339
REMARK  134  A    between atoms: _341  and  _343
REMARK  135  A    between atoms: _343  and  _344
REMARK  136  A    between atoms: _343  and  _346
REMARK  137  A    between atoms: _346  and  _347
REMARK  138  A    between atoms: _352  and  _354
REMARK  139  A    between atoms: _354  and  _355
REMARK  140  A    between atoms: _354  and  _357
REMARK  141  A    between atoms: _357  and  _358
REMARK  142  A    between atoms: _361  and  _363
REMARK  143  A    between atoms: _363  and  _364
REMARK  144  A    between atoms: _363  and  _366
REMARK  145  A    between atoms: _366  and  _367
REMARK  146  A    between atoms: _372  and  _374
REMARK  147  A    between atoms: _374  and  _375
REMARK  148  A    between atoms: _374  and  _377
REMARK  149  A    between atoms: _377  and  _378
REMARK  150  A    between atoms: _388  and  _390
REMARK  151  A    between atoms: _390  and  _391
REMARK  152  A    between atoms: _390  and  _393
REMARK  153  A    between atoms: _393  and  _394
REMARK  154  A    between atoms: _400  and  _402
REMARK  155  A    between atoms: _402  and  _403
REMARK  156  A    between atoms: _402  and  _405
REMARK  157  A    between atoms: _405  and  _406
REMARK  158  A    between atoms: _409  and  _411
REMARK  159  A    between atoms: _411  and  _412
REMARK  160  A    between atoms: _411  and  _414
REMARK  161  A    between atoms: _414  and  _415
REMARK  162  A    between atoms: _418  and  _420
REMARK  163  A    between atoms: _420  and  _421
REMARK  164  A    between atoms: _420  and  _423
REMARK  165  A    between atoms: _423  and  _424
REMARK  166  A    between atoms: _424  and  _425
REMARK  167  A    between atoms: _425  and  _426
REMARK  168  A    between atoms: _435  and  _437
REMARK  169  A    between atoms: _437  and  _438
REMARK  170  A    between atoms: _437  and  _440
REMARK  171  A    between atoms: _440  and  _441
REMARK  172  A    between atoms: _446  and  _448
REMARK  173  A    between atoms: _448  and  _449
REMARK  174  A    between atoms: _448  and  _451
REMARK  175  A    between atoms: _451  and  _452
REMARK  176  A    between atoms: _452  and  _453
REMARK  177  A    between atoms: _453  and  _454
REMARK  178  A    between atoms: _463  and  _465
REMARK  179  A    between atoms: _465  and  _466
REMARK  180  A    between atoms: _469  and  _471
REMARK  181  A    between atoms: _471  and  _472
REMARK  182  A    between atoms: _474  and  _476
REMARK  183  A    between atoms: _476  and  _477
REMARK  184  A    between atoms: _476  and  _479
REMARK  185  A    between atoms: _479  and  _480
REMARK  186  A    between atoms: _490  and  _492
REMARK  187  A    between atoms: _492  and  _493
REMARK  188  A    between atoms: _492  and  _495
REMARK  189  A    between atoms: _495  and  _496
REMARK  190  A    between atoms: _497  and  _499
REMARK  191  A    between atoms: _499  and  _500
REMARK  192  A    between atoms: _503  and  _505
REMARK  193  A    between atoms: _505  and  _506
REMARK  194  A    between atoms: _505  and  _508
REMARK  195  A    between atoms: _508  and  _509
REMARK  196  A    between atoms: _512  and  _514
REMARK  197  A    between atoms: _514  and  _515
REMARK  198  A    between atoms: _514  and  _517
REMARK  199  A    between atoms: _517  and  _518
REMARK  200  A    between atoms: _523  and  _524
REMARK  201  A    between atoms: _526  and  _528
REMARK  202  A    between atoms: _528  and  _529
REMARK  203  A    between atoms: _528  and  _531
REMARK  204  A    between atoms: _531  and  _532
REMARK  205  A    between atoms: _534  and  _536
REMARK  206  A    between atoms: _536  and  _537
REMARK  207  A    between atoms: _536  and  _539
REMARK  208  A    between atoms: _539  and  _540
REMARK  209  A    between atoms: _546  and  _548
REMARK  210  A    between atoms: _548  and  _549
REMARK  211  A    between atoms: _548  and  _551
REMARK  212  A    between atoms: _551  and  _552
REMARK  213  A    between atoms: _555  and  _557
REMARK  214  A    between atoms: _557  and  _558
REMARK  215  A    between atoms: _557  and  _560
REMARK  216  A    between atoms: _560  and  _561
REMARK  217  A    between atoms: _563  and  _565
REMARK  218  A    between atoms: _565  and  _566
REMARK  219  A    between atoms: _565  and  _568
REMARK  220  A    between atoms: _568  and  _569
REMARK  221  A    between atoms: _574  and  _576
REMARK  222  A    between atoms: _576  and  _577
REMARK  223  A    between atoms: _576  and  _579
REMARK  224  A    between atoms: _579  and  _580
REMARK  225  A    between atoms: _585  and  _587
REMARK  226  A    between atoms: _587  and  _588
REMARK  227  A    between atoms: _587  and  _590
REMARK  228  A    between atoms: _590  and  _591
REMARK  229  A    between atoms: _594  and  _596
REMARK  230  A    between atoms: _596  and  _597
REMARK  231  A    between atoms: _600  and  _602
REMARK  232  A    between atoms: _602  and  _603
REMARK  233  A    between atoms: _602  and  _605
REMARK  234  A    between atoms: _605  and  _606
REMARK  235  A    between atoms: _611  and  _612
REMARK  236  A    between atoms: _614  and  _616
REMARK  237  A    between atoms: _616  and  _617
REMARK  238  A    between atoms: _616  and  _619
REMARK  239  A    between atoms: _619  and  _620
REMARK  240  A    between atoms: _625  and  _626
REMARK  241  A    between atoms: _628  and  _630
REMARK  242  A    between atoms: _630  and  _631
REMARK  243  A    between atoms: _630  and  _633
REMARK  244  A    between atoms: _636  and  _638
REMARK  245  A    between atoms: _638  and  _639
REMARK  246  A    between atoms: _638  and  _641
REMARK  247  A    between atoms: _641  and  _642
REMARK  248  A    between atoms: _647  and  _649
REMARK  249  A    between atoms: _649  and  _650
REMARK  250  A    between atoms: _653  and  _655
REMARK  251  A    between atoms: _655  and  _656
REMARK  252  A    between atoms: _655  and  _658
REMARK  253  A    between atoms: _658  and  _659
REMARK  254  A    between atoms: _659  and  _660
REMARK  255  A    between atoms: _660  and  _661
REMARK  256  A    between atoms: _670  and  _672
REMARK  257  A    between atoms: _672  and  _673
REMARK  258  A    between atoms: _672  and  _675
REMARK  259  A    between atoms: _675  and  _676
REMARK  260  A    between atoms: _679  and  _681
REMARK  261  A    between atoms: _681  and  _682
REMARK  262  A    between atoms: _681  and  _684
REMARK  263  A    between atoms: _684  and  _685
REMARK  264  A    between atoms: _688  and  _690
REMARK  265  A    between atoms: _690  and  _691
REMARK  266  A    between atoms: _690  and  _693
REMARK  267  A    between atoms: _693  and  _694
REMARK  268  A    between atoms: _724  and  _725
REMARK  269  A    between atoms: _725  and  _731
REMARK                            x       y       z     vdW  Elec       q    Type
REMARK                         _______ _______ _______ _____ _____    ______ ____
ROOT
ATOM      1  O   HOH     1      -4.434  27.744  13.670  0.00  0.00    +0.000 OA
ENDROOT
TORSDOF 0
REMARK  Name = ../refined-set-2016/1b3h/1b3h_pocket.pdb
REMARK  269 active torsions:
REMARK  status: ('A' for Active; 'I' for Inactive)
REMARK    1  A    between atoms: _1  and  _3
REMARK    2  A    between atoms: _3  and  _4
REMARK    3  A    between atoms: _3  and  _6
REMARK    4  A    between atoms: _6  and  _7
REMARK    5  A    between atoms: _12  and  _14
REMARK    6  A    between atoms: _14  and  _15
REMARK    7  A    between atoms: _17  and  _19
REMARK    8  A    between atoms: _19  and  _20
REMARK    9  A    between atoms: _19  and  _22
REMARK   10  A    between atoms: _22  and  _23
REMARK   11  A    between atoms: _25  and  _27
REMARK   12  A    between atoms: _27  and  _28
REMARK   13  A    between atoms: _27  and  _30
REMARK   14  A    between atoms: _30  and  _31
REMARK   15  A    between atoms: _31  and  _32
REMARK   16  A    between atoms: _37  and  _39
REMARK   17  A    between atoms: _39  and  _40
REMARK   18  A    between atoms: _39  and  _42
REMARK   19  A    between atoms: _42  and  _43
REMARK   20  A    between atoms: _46  and  _48
REMARK   21  A    between atoms: _48  and  _49
REMARK   22  A    between atoms: _48  and  _51
REMARK   23  A    between atoms: _51  and  _52
REMARK   24  A    between atoms: _52  and  _53
REMARK   25  A    between atoms: _56  and  _58
REMARK   26  A    between atoms: _58  and  _59
REMARK   27  A    between atoms: _61  and  _63
REMARK   28  A    between atoms: _63  and  _64
REMARK   29  A    between atoms: _63  and  _66
REMARK   30  A    between atoms: _70  and  _71
REMARK   31  A    between atoms: _76  and  _78
REMARK   32  A    between atoms: _78  and  _79
REMARK   33  A    between atoms: _78  and  _81
REMARK   34  A    between atoms: _81  and  _82
REMARK   35  A    between atoms: _82  and  _83
REMARK   36  A    between atoms: _86  and  _88
REMARK   37  A    between atoms: _88  and  _89
REMARK   38  A    between atoms: _88  and  _91
REMARK   39  A    between atoms: _91  and  _92
REMARK   40  A    between atoms: _94  and  _96
REMARK   41  A    between atoms: _96  and  _97
REMARK   42  A    between atoms: _96  and  _99
REMARK   43  A    between atoms: _99  and  _100
REMARK   44  A    between atoms: _105  and  _107
REMARK   45  A    between atoms: _107  and  _108
REMARK   46  A    between atoms: _107  and  _110
REMARK   47  A    between atoms: _110  and  _111
REMARK   48  A    between atoms: _111  and  _112
REMARK   49  A    between atoms: _112  and  _113
REMARK   50  A    between atoms: _123  and  _124
REMARK   51  A    between atoms: _129  and  _131
REMARK   52  A    between atoms: _131  and  _132
REMARK   53  A    between atoms: _131  and  _134
REMARK   54  A    between atoms: _134  and  _135
REMARK   55  A    between atoms: _140  and  _141
REMARK   56  A    between atoms: _143  and  _145
REMARK   57  A    between atoms: _145  and  _146
REMARK   58  A    between atoms: _145  and  _148
REMARK   59  A    between atoms: _148  and  _149
REMARK   60  A    between atoms: _154  and  _155
REMARK   61  A    between atoms: _157  and  _159
REMARK   62  A    between atoms: _159  and  _160
REMARK   63  A    between atoms: _159  and  _162
REMARK   64  A    between atoms: _162  and  _163
REMARK   65  A    between atoms: _168  and  _169
REMARK   66  A    between atoms: _171  and  _173
REMARK   67  A    between atoms: _173  and  _174
REMARK   68  A    between atoms: _173  and  _176
REMARK   69  A    between atoms: _179  and  _181
REMARK   70  A    between atoms: _181  and  _182
REMARK   71  A    between atoms: _181  and  _184
REMARK   72  A    between atoms: _184  and  _185
REMARK   73  A    between atoms: _191  and  _192
REMARK   74  A    between atoms: _197  and  _199
REMARK   75  A    between atoms: _199  and  _200
REMARK   76  A    between atoms: _199  and  _202
REMARK   77  A    between atoms: _202  and  _203
REMARK   78  A    between atoms: _205  and  _207
REMARK   79  A    between atoms: _207  and  _208
REMARK   80  A    between atoms: _207  and  _210
REMARK   81  A    between atoms: _210  and  _211
REMARK   82  A    between atoms: _216  and  _217
REMARK   83  A    between atoms: _219  and  _221
REMARK   84  A    between atoms: _221  and  _222
REMARK   85  A    between atoms: _221  and  _224
REMARK   86  A    between atoms: _224  and  _225
REMARK   87  A    between atoms: _230  and  _232
REMARK   88  A    between atoms: _232  and  _233
REMARK   89  A    between atoms: _232  and  _235
REMARK   90  A    between atoms: _235  and  _236
REMARK   91  A    between atoms: _241  and  _243
REMARK   92  A    between atoms: _243  and  _244
REMARK   93  A    between atoms: _243  and  _246
REMARK   94  A    between atoms: _246  and  _247
REMARK   95  A    between atoms: _247  and  _248
REMARK   96  A    between atoms: _250  and  _252
REMARK   97  A    between atoms: _252  and  _253
REMARK   98  A    between atoms: _252  and  _255
REMARK   99  A    between atoms: _255  and  _256
REMARK  100  A    between atoms: _261  and  _262
REMARK  101  A    between atoms: _264  and  _266
REMARK  102  A    between atoms: _266  and  _267
REMARK  103  A    between atoms: _266  and  _269
REMARK  104  A    between atoms: _269  and  _270
REMARK  105  A    between atoms: _273  and  _275
REMARK  106  A    between atoms: _275  and  _276
REMARK  107  A    between atoms: _275  and  _278
REMARK  108  A    between atoms: _278  and  _279
REMARK  109  A    between atoms: _279  and  _496
REMARK  110  A    between atoms: _280  and  _282
REMARK  111  A    between atoms: _282  and  _283
REMARK  112  A    between atoms: _282  and  _285
REMARK  113  A    between atoms: _285  and  _286
REMARK  114  A    between atoms: _289  and  _291
REMARK  115  A    between atoms: _291  and  _292
REMARK  116  A    between atoms: _291  and  _294
REMARK  117  A    between atoms: _294  and  _295
REMARK  118  A    between atoms: _300  and  _301
REMARK  119  A    between atoms: _303  and  _305
REMARK  120  A    between atoms: _305  and  _306
REMARK  121  A    between atoms: _305  and  _308
REMARK  122  A    between atoms: _308  and  _309
REMARK  123  A    between atoms: _314  and  _315
REMARK  124  A    between atoms: _317  and  _319
REMARK  125  A    between atoms: _319  and  _320
REMARK  126  A    between atoms: _319  and  _322
REMARK  127  A    between atoms: _322  and  _323
REMARK  128  A    between atoms: _323  and  _324
REMARK  129  A    between atoms: _327  and  _329
REMARK  130  A    between atoms: _329  and  _330
REMARK  131  A    between atoms: _329  and  _332
REMARK  132  A    between atoms: _332  and  _333
REMARK  133  A    between atoms: _338  and  _339
REMARK  134  A    between atoms: _341  and  _343
REMARK  135  A    between atoms: _343  and  _344
REMARK  136  A    between atoms: _343  and  _346
REMARK  137  A    between atoms: _346  and  _347
REMARK  138  A    between atoms: _352  and  _354
REMARK  139  A    between atoms: _354  and  _355
REMARK  140  A    between atoms: _354  and  _357
REMARK  141  A    between atoms: _357  and  _358
REMARK  142  A    between atoms: _361  and  _363
REMARK  143  A    between atoms: _363  and  _364
REMARK  144  A    between atoms: _363  and  _366
REMARK  145  A    between atoms: _366  and  _367
REMARK  146  A    between atoms: _372  and  _374
REMARK  147  A    between atoms: _374  and  _375
REMARK  148  A    between atoms: _374  and  _377
REMARK  149  A    between atoms: _377  and  _378
REMARK  150  A    between atoms: _388  and  _390
REMARK  151  A    between atoms: _390  and  _391
REMARK  152  A    between atoms: _390  and  _393
REMARK  153  A    between atoms: _393  and  _394
REMARK  154  A    between atoms: _400  and  _402
REMARK  155  A    between atoms: _402  and  _403
REMARK  156  A    between atoms: _402  and  _405
REMARK  157  A    between atoms: _405  and  _406
REMARK  158  A    between atoms: _409  and  _411
REMARK  159  A    between atoms: _411  and  _412
REMARK  160  A    between atoms: _411  and  _414
REMARK  161  A    between atoms: _414  and  _415
REMARK  162  A    between atoms: _418  and  _420
REMARK  163  A    between atoms: _420  and  _421
REMARK  164  A    between atoms: _420  and  _423
REMARK  165  A    between atoms: _423  and  _424
REMARK  166  A    between atoms: _424  and  _425
REMARK  167  A    between atoms: _425  and  _426
REMARK  168  A    between atoms: _435  and  _437
REMARK  169  A    between atoms: _437  and  _438
REMARK  170  A    between atoms: _437  and  _440
REMARK  171  A    between atoms: _440  and  _441
REMARK  172  A    between atoms: _446  and  _448
REMARK  173  A    between atoms: _448  and  _449
REMARK  174  A    between atoms: _448  and  _451
REMARK  175  A    between atoms: _451  and  _452
REMARK  176  A    between atoms: _452  and  _453
REMARK  177  A    between atoms: _453  and  _454
REMARK  178  A    between atoms: _463  and  _465
REMARK  179  A    between atoms: _465  and  _466
REMARK  180  A    between atoms: _469  and  _471
REMARK  181  A    between atoms: _471  and  _472
REMARK  182  A    between atoms: _474  and  _476
REMARK  183  A    between atoms: _476  and  _477
REMARK  184  A    between atoms: _476  and  _479
REMARK  185  A    between atoms: _479  and  _480
REMARK  186  A    between atoms: _490  and  _492
REMARK  187  A    between atoms: _492  and  _493
REMARK  188  A    between atoms: _492  and  _495
REMARK  189  A    between atoms: _495  and  _496
REMARK  190  A    between atoms: _497  and  _499
REMARK  191  A    between atoms: _499  and  _500
REMARK  192  A    between atoms: _503  and  _505
REMARK  193  A    between atoms: _505  and  _506
REMARK  194  A    between atoms: _505  and  _508
REMARK  195  A    between atoms: _508  and  _509
REMARK  196  A    between atoms: _512  and  _514
REMARK  197  A    between atoms: _514  and  _515
REMARK  198  A    between atoms: _514  and  _517
REMARK  199  A    between atoms: _517  and  _518
REMARK  200  A    between atoms: _523  and  _524
REMARK  201  A    between atoms: _526  and  _528
REMARK  202  A    between atoms: _528  and  _529
REMARK  203  A    between atoms: _528  and  _531
REMARK  204  A    between atoms: _531  and  _532
REMARK  205  A    between atoms: _534  and  _536
REMARK  206  A    between atoms: _536  and  _537
REMARK  207  A    between atoms: _536  and  _539
REMARK  208  A    between atoms: _539  and  _540
REMARK  209  A    between atoms: _546  and  _548
REMARK  210  A    between atoms: _548  and  _549
REMARK  211  A    between atoms: _548  and  _551
REMARK  212  A    between atoms: _551  and  _552
REMARK  213  A    between atoms: _555  and  _557
REMARK  214  A    between atoms: _557  and  _558
REMARK  215  A    between atoms: _557  and  _560
REMARK  216  A    between atoms: _560  and  _561
REMARK  217  A    between atoms: _563  and  _565
REMARK  218  A    between atoms: _565  and  _566
REMARK  219  A    between atoms: _565  and  _568
REMARK  220  A    between atoms: _568  and  _569
REMARK  221  A    between atoms: _574  and  _576
REMARK  222  A    between atoms: _576  and  _577
REMARK  223  A    between atoms: _576  and  _579
REMARK  224  A    between atoms: _579  and  _580
REMARK  225  A    between atoms: _585  and  _587
REMARK  226  A    between atoms: _587  and  _588
REMARK  227  A    between atoms: _587  and  _590
REMARK  228  A    between atoms: _590  and  _591
REMARK  229  A    between atoms: _594  and  _596
REMARK  230  A    between atoms: _596  and  _597
REMARK  231  A    between atoms: _600  and  _602
REMARK  232  A    between atoms: _602  and  _603
REMARK  233  A    between atoms: _602  and  _605
REMARK  234  A    between atoms: _605  and  _606
REMARK  235  A    between atoms: _611  and  _612
REMARK  236  A    between atoms: _614  and  _616
REMARK  237  A    between atoms: _616  and  _617
REMARK  238  A    between atoms: _616  and  _619
REMARK  239  A    between atoms: _619  and  _620
REMARK  240  A    between atoms: _625  and  _626
REMARK  241  A    between atoms: _628  and  _630
REMARK  242  A    between atoms: _630  and  _631
REMARK  243  A    between atoms: _630  and  _633
REMARK  244  A    between atoms: _636  and  _638
REMARK  245  A    between atoms: _638  and  _639
REMARK  246  A    between atoms: _638  and  _641
REMARK  247  A    between atoms: _641  and  _642
REMARK  248  A    between atoms: _647  and  _649
REMARK  249  A    between atoms: _649  and  _650
REMARK  250  A    between atoms: _653  and  _655
REMARK  251  A    between atoms: _655  and  _656
REMARK  252  A    between atoms: _655  and  _658
REMARK  253  A    between atoms: _658  and  _659
REMARK  254  A    between atoms: _659  and  _660
REMARK  255  A    between atoms: _660  and  _661
REMARK  256  A    between atoms: _670  and  _672
REMARK  257  A    between atoms: _672  and  _673
REMARK  258  A    between atoms: _672  and  _675
REMARK  259  A    between atoms: _675  and  _676
REMARK  260  A    between atoms: _679  and  _681
REMARK  261  A    between atoms: _681  and  _682
REMARK  262  A    between atoms: _681  and  _684
REMARK  263  A    between atoms: _684  and  _685
REMARK  264  A    between atoms: _688  and  _690
REMARK  265  A    between atoms: _690  and  _691
REMARK  266  A    between atoms: _690  and  _693
REMARK  267  A    between atoms: _693  and  _694
REMARK  268  A    between atoms: _724  and  _725
REMARK  269  A    between atoms: _725  and  _731
REMARK                            x       y       z     vdW  Elec       q    Type
REMARK                         _______ _______ _______ _____ _____    ______ ____
ROOT
ATOM      1  O   HOH     1      -1.949  17.207   7.731  0.00  0.00    +0.000 OA
ENDROOT
TORSDOF 0
REMARK  Name = ../refined-set-2016/1b3h/1b3h_pocket.pdb
REMARK  269 active torsions:
REMARK  status: ('A' for Active; 'I' for Inactive)
REMARK    1  A    between atoms: _1  and  _3
REMARK    2  A    between atoms: _3  and  _4
REMARK    3  A    between atoms: _3  and  _6
REMARK    4  A    between atoms: _6  and  _7
REMARK    5  A    between atoms: _12  and  _14
REMARK    6  A    between atoms: _14  and  _15
REMARK    7  A    between atoms: _17  and  _19
REMARK    8  A    between atoms: _19  and  _20
REMARK    9  A    between atoms: _19  and  _22
REMARK   10  A    between atoms: _22  and  _23
REMARK   11  A    between atoms: _25  and  _27
REMARK   12  A    between atoms: _27  and  _28
REMARK   13  A    between atoms: _27  and  _30
REMARK   14  A    between atoms: _30  and  _31
REMARK   15  A    between atoms: _31  and  _32
REMARK   16  A    between atoms: _37  and  _39
REMARK   17  A    between atoms: _39  and  _40
REMARK   18  A    between atoms: _39  and  _42
REMARK   19  A    between atoms: _42  and  _43
REMARK   20  A    between atoms: _46  and  _48
REMARK   21  A    between atoms: _48  and  _49
REMARK   22  A    between atoms: _48  and  _51
REMARK   23  A    between atoms: _51  and  _52
REMARK   24  A    between atoms: _52  and  _53
REMARK   25  A    between atoms: _56  and  _58
REMARK   26  A    between atoms: _58  and  _59
REMARK   27  A    between atoms: _61  and  _63
REMARK   28  A    between atoms: _63  and  _64
REMARK   29  A    between atoms: _63  and  _66
REMARK   30  A    between atoms: _70  and  _71
REMARK   31  A    between atoms: _76  and  _78
REMARK   32  A    between atoms: _78  and  _79
REMARK   33  A    between atoms: _78  and  _81
REMARK   34  A    between atoms: _81  and  _82
REMARK   35  A    between atoms: _82  and  _83
REMARK   36  A    between atoms: _86  and  _88
REMARK   37  A    between atoms: _88  and  _89
REMARK   38  A    between atoms: _88  and  _91
REMARK   39  A    between atoms: _91  and  _92
REMARK   40  A    between atoms: _94  and  _96
REMARK   41  A    between atoms: _96  and  _97
REMARK   42  A    between atoms: _96  and  _99
REMARK   43  A    between atoms: _99  and  _100
REMARK   44  A    between atoms: _105  and  _107
REMARK   45  A    between atoms: _107  and  _108
REMARK   46  A    between atoms: _107  and  _110
REMARK   47  A    between atoms: _110  and  _111
REMARK   48  A    between atoms: _111  and  _112
REMARK   49  A    between atoms: _112  and  _113
REMARK   50  A    between atoms: _123  and  _124
REMARK   51  A    between atoms: _129  and  _131
REMARK   52  A    between atoms: _131  and  _132
REMARK   53  A    between atoms: _131  and  _134
REMARK   54  A    between atoms: _134  and  _135
REMARK   55  A    between atoms: _140  and  _141
REMARK   56  A    between atoms: _143  and  _145
REMARK   57  A    between atoms: _145  and  _146
REMARK   58  A    between atoms: _145  and  _148
REMARK   59  A    between atoms: _148  and  _149
REMARK   60  A    between atoms: _154  and  _155
REMARK   61  A    between atoms: _157  and  _159
REMARK   62  A    between atoms: _159  and  _160
REMARK   63  A    between atoms: _159  and  _162
REMARK   64  A    between atoms: _162  and  _163
REMARK   65  A    between atoms: _168  and  _169
REMARK   66  A    between atoms: _171  and  _173
REMARK   67  A    between atoms: _173  and  _174
REMARK   68  A    between atoms: _173  and  _176
REMARK   69  A    between atoms: _179  and  _181
REMARK   70  A    between atoms: _181  and  _182
REMARK   71  A    between atoms: _181  and  _184
REMARK   72  A    between atoms: _184  and  _185
REMARK   73  A    between atoms: _191  and  _192
REMARK   74  A    between atoms: _197  and  _199
REMARK   75  A    between atoms: _199  and  _200
REMARK   76  A    between atoms: _199  and  _202
REMARK   77  A    between atoms: _202  and  _203
REMARK   78  A    between atoms: _205  and  _207
REMARK   79  A    between atoms: _207  and  _208
REMARK   80  A    between atoms: _207  and  _210
REMARK   81  A    between atoms: _210  and  _211
REMARK   82  A    between atoms: _216  and  _217
REMARK   83  A    between atoms: _219  and  _221
REMARK   84  A    between atoms: _221  and  _222
REMARK   85  A    between atoms: _221  and  _224
REMARK   86  A    between atoms: _224  and  _225
REMARK   87  A    between atoms: _230  and  _232
REMARK   88  A    between atoms: _232  and  _233
REMARK   89  A    between atoms: _232  and  _235
REMARK   90  A    between atoms: _235  and  _236
REMARK   91  A    between atoms: _241  and  _243
REMARK   92  A    between atoms: _243  and  _244
REMARK   93  A    between atoms: _243  and  _246
REMARK   94  A    between atoms: _246  and  _247
REMARK   95  A    between atoms: _247  and  _248
REMARK   96  A    between atoms: _250  and  _252
REMARK   97  A    between atoms: _252  and  _253
REMARK   98  A    between atoms: _252  and  _255
REMARK   99  A    between atoms: _255  and  _256
REMARK  100  A    between atoms: _261  and  _262
REMARK  101  A    between atoms: _264  and  _266
REMARK  102  A    between atoms: _266  and  _267
REMARK  103  A    between atoms: _266  and  _269
REMARK  104  A    between atoms: _269  and  _270
REMARK  105  A    between atoms: _273  and  _275
REMARK  106  A    between atoms: _275  and  _276
REMARK  107  A    between atoms: _275  and  _278
REMARK  108  A    between atoms: _278  and  _279
REMARK  109  A    between atoms: _279  and  _496
REMARK  110  A    between atoms: _280  and  _282
REMARK  111  A    between atoms: _282  and  _283
REMARK  112  A    between atoms: _282  and  _285
REMARK  113  A    between atoms: _285  and  _286
REMARK  114  A    between atoms: _289  and  _291
REMARK  115  A    between atoms: _291  and  _292
REMARK  116  A    between atoms: _291  and  _294
REMARK  117  A    between atoms: _294  and  _295
REMARK  118  A    between atoms: _300  and  _301
REMARK  119  A    between atoms: _303  and  _305
REMARK  120  A    between atoms: _305  and  _306
REMARK  121  A    between atoms: _305  and  _308
REMARK  122  A    between atoms: _308  and  _309
REMARK  123  A    between atoms: _314  and  _315
REMARK  124  A    between atoms: _317  and  _319
REMARK  125  A    between atoms: _319  and  _320
REMARK  126  A    between atoms: _319  and  _322
REMARK  127  A    between atoms: _322  and  _323
REMARK  128  A    between atoms: _323  and  _324
REMARK  129  A    between atoms: _327  and  _329
REMARK  130  A    between atoms: _329  and  _330
REMARK  131  A    between atoms: _329  and  _332
REMARK  132  A    between atoms: _332  and  _333
REMARK  133  A    between atoms: _338  and  _339
REMARK  134  A    between atoms: _341  and  _343
REMARK  135  A    between atoms: _343  and  _344
REMARK  136  A    between atoms: _343  and  _346
REMARK  137  A    between atoms: _346  and  _347
REMARK  138  A    between atoms: _352  and  _354
REMARK  139  A    between atoms: _354  and  _355
REMARK  140  A    between atoms: _354  and  _357
REMARK  141  A    between atoms: _357  and  _358
REMARK  142  A    between atoms: _361  and  _363
REMARK  143  A    between atoms: _363  and  _364
REMARK  144  A    between atoms: _363  and  _366
REMARK  145  A    between atoms: _366  and  _367
REMARK  146  A    between atoms: _372  and  _374
REMARK  147  A    between atoms: _374  and  _375
REMARK  148  A    between atoms: _374  and  _377
REMARK  149  A    between atoms: _377  and  _378
REMARK  150  A    between atoms: _388  and  _390
REMARK  151  A    between atoms: _390  and  _391
REMARK  152  A    between atoms: _390  and  _393
REMARK  153  A    between atoms: _393  and  _394
REMARK  154  A    between atoms: _400  and  _402
REMARK  155  A    between atoms: _402  and  _403
REMARK  156  A    between atoms: _402  and  _405
REMARK  157  A    between atoms: _405  and  _406
REMARK  158  A    between atoms: _409  and  _411
REMARK  159  A    between atoms: _411  and  _412
REMARK  160  A    between atoms: _411  and  _414
REMARK  161  A    between atoms: _414  and  _415
REMARK  162  A    between atoms: _418  and  _420
REMARK  163  A    between atoms: _420  and  _421
REMARK  164  A    between atoms: _420  and  _423
REMARK  165  A    between atoms: _423  and  _424
REMARK  166  A    between atoms: _424  and  _425
REMARK  167  A    between atoms: _425  and  _426
REMARK  168  A    between atoms: _435  and  _437
REMARK  169  A    between atoms: _437  and  _438
REMARK  170  A    between atoms: _437  and  _440
REMARK  171  A    between atoms: _440  and  _441
REMARK  172  A    between atoms: _446  and  _448
REMARK  173  A    between atoms: _448  and  _449
REMARK  174  A    between atoms: _448  and  _451
REMARK  175  A    between atoms: _451  and  _452
REMARK  176  A    between atoms: _452  and  _453
REMARK  177  A    between atoms: _453  and  _454
REMARK  178  A    between atoms: _463  and  _465
REMARK  179  A    between atoms: _465  and  _466
REMARK  180  A    between atoms: _469  and  _471
REMARK  181  A    between atoms: _471  and  _472
REMARK  182  A    between atoms: _474  and  _476
REMARK  183  A    between atoms: _476  and  _477
REMARK  184  A    between atoms: _476  and  _479
REMARK  185  A    between atoms: _479  and  _480
REMARK  186  A    between atoms: _490  and  _492
REMARK  187  A    between atoms: _492  and  _493
REMARK  188  A    between atoms: _492  and  _495
REMARK  189  A    between atoms: _495  and  _496
REMARK  190  A    between atoms: _497  and  _499
REMARK  191  A    between atoms: _499  and  _500
REMARK  192  A    between atoms: _503  and  _505
REMARK  193  A    between atoms: _505  and  _506
REMARK  194  A    between atoms: _505  and  _508
REMARK  195  A    between atoms: _508  and  _509
REMARK  196  A    between atoms: _512  and  _514
REMARK  197  A    between atoms: _514  and  _515
REMARK  198  A    between atoms: _514  and  _517
REMARK  199  A    between atoms: _517  and  _518
REMARK  200  A    between atoms: _523  and  _524
REMARK  201  A    between atoms: _526  and  _528
REMARK  202  A    between atoms: _528  and  _529
REMARK  203  A    between atoms: _528  and  _531
REMARK  204  A    between atoms: _531  and  _532
REMARK  205  A    between atoms: _534  and  _536
REMARK  206  A    between atoms: _536  and  _537
REMARK  207  A    between atoms: _536  and  _539
REMARK  208  A    between atoms: _539  and  _540
REMARK  209  A    between atoms: _546  and  _548
REMARK  210  A    between atoms: _548  and  _549
REMARK  211  A    between atoms: _548  and  _551
REMARK  212  A    between atoms: _551  and  _552
REMARK  213  A    between atoms: _555  and  _557
REMARK  214  A    between atoms: _557  and  _558
REMARK  215  A    between atoms: _557  and  _560
REMARK  216  A    between atoms: _560  and  _561
REMARK  217  A    between atoms: _563  and  _565
REMARK  218  A    between atoms: _565  and  _566
REMARK  219  A    between atoms: _565  and  _568
REMARK  220  A    between atoms: _568  and  _569
REMARK  221  A    between atoms: _574  and  _576
REMARK  222  A    between atoms: _576  and  _577
REMARK  223  A    between atoms: _576  and  _579
REMARK  224  A    between atoms: _579  and  _580
REMARK  225  A    between atoms: _585  and  _587
REMARK  226  A    between atoms: _587  and  _588
REMARK  227  A    between atoms: _587  and  _590
REMARK  228  A    between atoms: _590  and  _591
REMARK  229  A    between atoms: _594  and  _596
REMARK  230  A    between atoms: _596  and  _597
REMARK  231  A    between atoms: _600  and  _602
REMARK  232  A    between atoms: _602  and  _603
REMARK  233  A    between atoms: _602  and  _605
REMARK  234  A    between atoms: _605  and  _606
REMARK  235  A    between atoms: _611  and  _612
REMARK  236  A    between atoms: _614  and  _616
REMARK  237  A    between atoms: _616  and  _617
REMARK  238  A    between atoms: _616  and  _619
REMARK  239  A    between atoms: _619  and  _620
REMARK  240  A    between atoms: _625  and  _626
REMARK  241  A    between atoms: _628  and  _630
REMARK  242  A    between atoms: _630  and  _631
REMARK  243  A    between atoms: _630  and  _633
REMARK  244  A    between atoms: _636  and  _638
REMARK  245  A    between atoms: _638  and  _639
REMARK  246  A    between atoms: _638  and  _641
REMARK  247  A    between atoms: _641  and  _642
REMARK  248  A    between atoms: _647  and  _649
REMARK  249  A    between atoms: _649  and  _650
REMARK  250  A    between atoms: _653  and  _655
REMARK  251  A    between atoms: _655  and  _656
REMARK  252  A    between atoms: _655  and  _658
REMARK  253  A    between atoms: _658  and  _659
REMARK  254  A    between atoms: _659  and  _660
REMARK  255  A    between atoms: _660  and  _661
REMARK  256  A    between atoms: _670  and  _672
REMARK  257  A    between atoms: _672  and  _673
REMARK  258  A    between atoms: _672  and  _675
REMARK  259  A    between atoms: _675  and  _676
REMARK  260  A    between atoms: _679  and  _681
REMARK  261  A    between atoms: _681  and  _682
REMARK  262  A    between atoms: _681  and  _684
REMARK  263  A    between atoms: _684  and  _685
REMARK  264  A    between atoms: _688  and  _690
REMARK  265  A    between atoms: _690  and  _691
REMARK  266  A    between atoms: _690  and  _693
REMARK  267  A    between atoms: _693  and  _694
REMARK  268  A    between atoms: _724  and  _725
REMARK  269  A    between atoms: _725  and  _731
REMARK                            x       y       z     vdW  Elec       q    Type
REMARK                         _______ _______ _______ _____ _____    ______ ____
ROOT
ATOM      1  O   HOH     1       3.697  20.406  20.726  0.00  0.00    +0.000 OA
ENDROOT
TORSDOF 0
REMARK  Name = ../refined-set-2016/1b3h/1b3h_pocket.pdb
REMARK  269 active torsions:
REMARK  status: ('A' for Active; 'I' for Inactive)
REMARK    1  A    between atoms: _1  and  _3
REMARK    2  A    between atoms: _3  and  _4
REMARK    3  A    between atoms: _3  and  _6
REMARK    4  A    between atoms: _6  and  _7
REMARK    5  A    between atoms: _12  and  _14
REMARK    6  A    between atoms: _14  and  _15
REMARK    7  A    between atoms: _17  and  _19
REMARK    8  A    between atoms: _19  and  _20
REMARK    9  A    between atoms: _19  and  _22
REMARK   10  A    between atoms: _22  and  _23
REMARK   11  A    between atoms: _25  and  _27
REMARK   12  A    between atoms: _27  and  _28
REMARK   13  A    between atoms: _27  and  _30
REMARK   14  A    between atoms: _30  and  _31
REMARK   15  A    between atoms: _31  and  _32
REMARK   16  A    between atoms: _37  and  _39
REMARK   17  A    between atoms: _39  and  _40
REMARK   18  A    between atoms: _39  and  _42
REMARK   19  A    between atoms: _42  and  _43
REMARK   20  A    between atoms: _46  and  _48
REMARK   21  A    between atoms: _48  and  _49
REMARK   22  A    between atoms: _48  and  _51
REMARK   23  A    between atoms: _51  and  _52
REMARK   24  A    between atoms: _52  and  _53
REMARK   25  A    between atoms: _56  and  _58
REMARK   26  A    between atoms: _58  and  _59
REMARK   27  A    between atoms: _61  and  _63
REMARK   28  A    between atoms: _63  and  _64
REMARK   29  A    between atoms: _63  and  _66
REMARK   30  A    between atoms: _70  and  _71
REMARK   31  A    between atoms: _76  and  _78
REMARK   32  A    between atoms: _78  and  _79
REMARK   33  A    between atoms: _78  and  _81
REMARK   34  A    between atoms: _81  and  _82
REMARK   35  A    between atoms: _82  and  _83
REMARK   36  A    between atoms: _86  and  _88
REMARK   37  A    between atoms: _88  and  _89
REMARK   38  A    between atoms: _88  and  _91
REMARK   39  A    between atoms: _91  and  _92
REMARK   40  A    between atoms: _94  and  _96
REMARK   41  A    between atoms: _96  and  _97
REMARK   42  A    between atoms: _96  and  _99
REMARK   43  A    between atoms: _99  and  _100
REMARK   44  A    between atoms: _105  and  _107
REMARK   45  A    between atoms: _107  and  _108
REMARK   46  A    between atoms: _107  and  _110
REMARK   47  A    between atoms: _110  and  _111
REMARK   48  A    between atoms: _111  and  _112
REMARK   49  A    between atoms: _112  and  _113
REMARK   50  A    between atoms: _123  and  _124
REMARK   51  A    between atoms: _129  and  _131
REMARK   52  A    between atoms: _131  and  _132
REMARK   53  A    between atoms: _131  and  _134
REMARK   54  A    between atoms: _134  and  _135
REMARK   55  A    between atoms: _140  and  _141
REMARK   56  A    between atoms: _143  and  _145
REMARK   57  A    between atoms: _145  and  _146
REMARK   58  A    between atoms: _145  and  _148
REMARK   59  A    between atoms: _148  and  _149
REMARK   60  A    between atoms: _154  and  _155
REMARK   61  A    between atoms: _157  and  _159
REMARK   62  A    between atoms: _159  and  _160
REMARK   63  A    between atoms: _159  and  _162
REMARK   64  A    between atoms: _162  and  _163
REMARK   65  A    between atoms: _168  and  _169
REMARK   66  A    between atoms: _171  and  _173
REMARK   67  A    between atoms: _173  and  _174
REMARK   68  A    between atoms: _173  and  _176
REMARK   69  A    between atoms: _179  and  _181
REMARK   70  A    between atoms: _181  and  _182
REMARK   71  A    between atoms: _181  and  _184
REMARK   72  A    between atoms: _184  and  _185
REMARK   73  A    between atoms: _191  and  _192
REMARK   74  A    between atoms: _197  and  _199
REMARK   75  A    between atoms: _199  and  _200
REMARK   76  A    between atoms: _199  and  _202
REMARK   77  A    between atoms: _202  and  _203
REMARK   78  A    between atoms: _205  and  _207
REMARK   79  A    between atoms: _207  and  _208
REMARK   80  A    between atoms: _207  and  _210
REMARK   81  A    between atoms: _210  and  _211
REMARK   82  A    between atoms: _216  and  _217
REMARK   83  A    between atoms: _219  and  _221
REMARK   84  A    between atoms: _221  and  _222
REMARK   85  A    between atoms: _221  and  _224
REMARK   86  A    between atoms: _224  and  _225
REMARK   87  A    between atoms: _230  and  _232
REMARK   88  A    between atoms: _232  and  _233
REMARK   89  A    between atoms: _232  and  _235
REMARK   90  A    between atoms: _235  and  _236
REMARK   91  A    between atoms: _241  and  _243
REMARK   92  A    between atoms: _243  and  _244
REMARK   93  A    between atoms: _243  and  _246
REMARK   94  A    between atoms: _246  and  _247
REMARK   95  A    between atoms: _247  and  _248
REMARK   96  A    between atoms: _250  and  _252
REMARK   97  A    between atoms: _252  and  _253
REMARK   98  A    between atoms: _252  and  _255
REMARK   99  A    between atoms: _255  and  _256
REMARK  100  A    between atoms: _261  and  _262
REMARK  101  A    between atoms: _264  and  _266
REMARK  102  A    between atoms: _266  and  _267
REMARK  103  A    between atoms: _266  and  _269
REMARK  104  A    between atoms: _269  and  _270
REMARK  105  A    between atoms: _273  and  _275
REMARK  106  A    between atoms: _275  and  _276
REMARK  107  A    between atoms: _275  and  _278
REMARK  108  A    between atoms: _278  and  _279
REMARK  109  A    between atoms: _279  and  _496
REMARK  110  A    between atoms: _280  and  _282
REMARK  111  A    between atoms: _282  and  _283
REMARK  112  A    between atoms: _282  and  _285
REMARK  113  A    between atoms: _285  and  _286
REMARK  114  A    between atoms: _289  and  _291
REMARK  115  A    between atoms: _291  and  _292
REMARK  116  A    between atoms: _291  and  _294
REMARK  117  A    between atoms: _294  and  _295
REMARK  118  A    between atoms: _300  and  _301
REMARK  119  A    between atoms: _303  and  _305
REMARK  120  A    between atoms: _305  and  _306
REMARK  121  A    between atoms: _305  and  _308
REMARK  122  A    between atoms: _308  and  _309
REMARK  123  A    between atoms: _314  and  _315
REMARK  124  A    between atoms: _317  and  _319
REMARK  125  A    between atoms: _319  and  _320
REMARK  126  A    between atoms: _319  and  _322
REMARK  127  A    between atoms: _322  and  _323
REMARK  128  A    between atoms: _323  and  _324
REMARK  129  A    between atoms: _327  and  _329
REMARK  130  A    between atoms: _329  and  _330
REMARK  131  A    between atoms: _329  and  _332
REMARK  132  A    between atoms: _332  and  _333
REMARK  133  A    between atoms: _338  and  _339
REMARK  134  A    between atoms: _341  and  _343
REMARK  135  A    between atoms: _343  and  _344
REMARK  136  A    between atoms: _343  and  _346
REMARK  137  A    between atoms: _346  and  _347
REMARK  138  A    between atoms: _352  and  _354
REMARK  139  A    between atoms: _354  and  _355
REMARK  140  A    between atoms: _354  and  _357
REMARK  141  A    between atoms: _357  and  _358
REMARK  142  A    between atoms: _361  and  _363
REMARK  143  A    between atoms: _363  and  _364
REMARK  144  A    between atoms: _363  and  _366
REMARK  145  A    between atoms: _366  and  _367
REMARK  146  A    between atoms: _372  and  _374
REMARK  147  A    between atoms: _374  and  _375
REMARK  148  A    between atoms: _374  and  _377
REMARK  149  A    between atoms: _377  and  _378
REMARK  150  A    between atoms: _388  and  _390
REMARK  151  A    between atoms: _390  and  _391
REMARK  152  A    between atoms: _390  and  _393
REMARK  153  A    between atoms: _393  and  _394
REMARK  154  A    between atoms: _400  and  _402
REMARK  155  A    between atoms: _402  and  _403
REMARK  156  A    between atoms: _402  and  _405
REMARK  157  A    between atoms: _405  and  _406
REMARK  158  A    between atoms: _409  and  _411
REMARK  159  A    between atoms: _411  and  _412
REMARK  160  A    between atoms: _411  and  _414
REMARK  161  A    between atoms: _414  and  _415
REMARK  162  A    between atoms: _418  and  _420
REMARK  163  A    between atoms: _420  and  _421
REMARK  164  A    between atoms: _420  and  _423
REMARK  165  A    between atoms: _423  and  _424
REMARK  166  A    between atoms: _424  and  _425
REMARK  167  A    between atoms: _425  and  _426
REMARK  168  A    between atoms: _435  and  _437
REMARK  169  A    between atoms: _437  and  _438
REMARK  170  A    between atoms: _437  and  _440
REMARK  171  A    between atoms: _440  and  _441
REMARK  172  A    between atoms: _446  and  _448
REMARK  173  A    between atoms: _448  and  _449
REMARK  174  A    between atoms: _448  and  _451
REMARK  175  A    between atoms: _451  and  _452
REMARK  176  A    between atoms: _452  and  _453
REMARK  177  A    between atoms: _453  and  _454
REMARK  178  A    between atoms: _463  and  _465
REMARK  179  A    between atoms: _465  and  _466
REMARK  180  A    between atoms: _469  and  _471
REMARK  181  A    between atoms: _471  and  _472
REMARK  182  A    between atoms: _474  and  _476
REMARK  183  A    between atoms: _476  and  _477
REMARK  184  A    between atoms: _476  and  _479
REMARK  185  A    between atoms: _479  and  _480
REMARK  186  A    between atoms: _490  and  _492
REMARK  187  A    between atoms: _492  and  _493
REMARK  188  A    between atoms: _492  and  _495
REMARK  189  A    between atoms: _495  and  _496
REMARK  190  A    between atoms: _497  and  _499
REMARK  191  A    between atoms: _499  and  _500
REMARK  192  A    between atoms: _503  and  _505
REMARK  193  A    between atoms: _505  and  _506
REMARK  194  A    between atoms: _505  and  _508
REMARK  195  A    between atoms: _508  and  _509
REMARK  196  A    between atoms: _512  and  _514
REMARK  197  A    between atoms: _514  and  _515
REMARK  198  A    between atoms: _514  and  _517
REMARK  199  A    between atoms: _517  and  _518
REMARK  200  A    between atoms: _523  and  _524
REMARK  201  A    between atoms: _526  and  _528
REMARK  202  A    between atoms: _528  and  _529
REMARK  203  A    between atoms: _528  and  _531
REMARK  204  A    between atoms: _531  and  _532
REMARK  205  A    between atoms: _534  and  _536
REMARK  206  A    between atoms: _536  and  _537
REMARK  207  A    between atoms: _536  and  _539
REMARK  208  A    between atoms: _539  and  _540
REMARK  209  A    between atoms: _546  and  _548
REMARK  210  A    between atoms: _548  and  _549
REMARK  211  A    between atoms: _548  and  _551
REMARK  212  A    between atoms: _551  and  _552
REMARK  213  A    between atoms: _555  and  _557
REMARK  214  A    between atoms: _557  and  _558
REMARK  215  A    between atoms: _557  and  _560
REMARK  216  A    between atoms: _560  and  _561
REMARK  217  A    between atoms: _563  and  _565
REMARK  218  A    between atoms: _565  and  _566
REMARK  219  A    between atoms: _565  and  _568
REMARK  220  A    between atoms: _568  and  _569
REMARK  221  A    between atoms: _574  and  _576
REMARK  222  A    between atoms: _576  and  _577
REMARK  223  A    between atoms: _576  and  _579
REMARK  224  A    between atoms: _579  and  _580
REMARK  225  A    between atoms: _585  and  _587
REMARK  226  A    between atoms: _587  and  _588
REMARK  227  A    between atoms: _587  and  _590
REMARK  228  A    between atoms: _590  and  _591
REMARK  229  A    between atoms: _594  and  _596
REMARK  230  A    between atoms: _596  and  _597
REMARK  231  A    between atoms: _600  and  _602
REMARK  232  A    between atoms: _602  and  _603
REMARK  233  A    between atoms: _602  and  _605
REMARK  234  A    between atoms: _605  and  _606
REMARK  235  A    between atoms: _611  and  _612
REMARK  236  A    between atoms: _614  and  _616
REMARK  237  A    between atoms: _616  and  _617
REMARK  238  A    between atoms: _616  and  _619
REMARK  239  A    between atoms: _619  and  _620
REMARK  240  A    between atoms: _625  and  _626
REMARK  241  A    between atoms: _628  and  _630
REMARK  242  A    between atoms: _630  and  _631
REMARK  243  A    between atoms: _630  and  _633
REMARK  244  A    between atoms: _636  and  _638
REMARK  245  A    between atoms: _638  and  _639
REMARK  246  A    between atoms: _638  and  _641
REMARK  247  A    between atoms: _641  and  _642
REMARK  248  A    between atoms: _647  and  _649
REMARK  249  A    between atoms: _649  and  _650
REMARK  250  A    between atoms: _653  and  _655
REMARK  251  A    between atoms: _655  and  _656
REMARK  252  A    between atoms: _655  and  _658
REMARK  253  A    between atoms: _658  and  _659
REMARK  254  A    between atoms: _659  and  _660
REMARK  255  A    between atoms: _660  and  _661
REMARK  256  A    between atoms: _670  and  _672
REMARK  257  A    between atoms: _672  and  _673
REMARK  258  A    between atoms: _672  and  _675
REMARK  259  A    between atoms: _675  and  _676
REMARK  260  A    between atoms: _679  and  _681
REMARK  261  A    between atoms: _681  and  _682
REMARK  262  A    between atoms: _681  and  _684
REMARK  263  A    between atoms: _684  and  _685
REMARK  264  A    between atoms: _688  and  _690
REMARK  265  A    between atoms: _690  and  _691
REMARK  266  A    between atoms: _690  and  _693
REMARK  267  A    between atoms: _693  and  _694
REMARK  268  A    between atoms: _724  and  _725
REMARK  269  A    between atoms: _725  and  _731
REMARK                            x       y       z     vdW  Elec       q    Type
REMARK                         _______ _______ _______ _____ _____    ______ ____
ROOT
ATOM      1  O   HOH     1      -7.841  23.564   9.686  0.00  0.00    +0.000 OA
ENDROOT
TORSDOF 0
REMARK  Name = ../refined-set-2016/1b3h/1b3h_pocket.pdb
REMARK  269 active torsions:
REMARK  status: ('A' for Active; 'I' for Inactive)
REMARK    1  A    between atoms: _1  and  _3
REMARK    2  A    between atoms: _3  and  _4
REMARK    3  A    between atoms: _3  and  _6
REMARK    4  A    between atoms: _6  and  _7
REMARK    5  A    between atoms: _12  and  _14
REMARK    6  A    between atoms: _14  and  _15
REMARK    7  A    between atoms: _17  and  _19
REMARK    8  A    between atoms: _19  and  _20
REMARK    9  A    between atoms: _19  and  _22
REMARK   10  A    between atoms: _22  and  _23
REMARK   11  A    between atoms: _25  and  _27
REMARK   12  A    between atoms: _27  and  _28
REMARK   13  A    between atoms: _27  and  _30
REMARK   14  A    between atoms: _30  and  _31
REMARK   15  A    between atoms: _31  and  _32
REMARK   16  A    between atoms: _37  and  _39
REMARK   17  A    between atoms: _39  and  _40
REMARK   18  A    between atoms: _39  and  _42
REMARK   19  A    between atoms: _42  and  _43
REMARK   20  A    between atoms: _46  and  _48
REMARK   21  A    between atoms: _48  and  _49
REMARK   22  A    between atoms: _48  and  _51
REMARK   23  A    between atoms: _51  and  _52
REMARK   24  A    between atoms: _52  and  _53
REMARK   25  A    between atoms: _56  and  _58
REMARK   26  A    between atoms: _58  and  _59
REMARK   27  A    between atoms: _61  and  _63
REMARK   28  A    between atoms: _63  and  _64
REMARK   29  A    between atoms: _63  and  _66
REMARK   30  A    between atoms: _70  and  _71
REMARK   31  A    between atoms: _76  and  _78
REMARK   32  A    between atoms: _78  and  _79
REMARK   33  A    between atoms: _78  and  _81
REMARK   34  A    between atoms: _81  and  _82
REMARK   35  A    between atoms: _82  and  _83
REMARK   36  A    between atoms: _86  and  _88
REMARK   37  A    between atoms: _88  and  _89
REMARK   38  A    between atoms: _88  and  _91
REMARK   39  A    between atoms: _91  and  _92
REMARK   40  A    between atoms: _94  and  _96
REMARK   41  A    between atoms: _96  and  _97
REMARK   42  A    between atoms: _96  and  _99
REMARK   43  A    between atoms: _99  and  _100
REMARK   44  A    between atoms: _105  and  _107
REMARK   45  A    between atoms: _107  and  _108
REMARK   46  A    between atoms: _107  and  _110
REMARK   47  A    between atoms: _110  and  _111
REMARK   48  A    between atoms: _111  and  _112
REMARK   49  A    between atoms: _112  and  _113
REMARK   50  A    between atoms: _123  and  _124
REMARK   51  A    between atoms: _129  and  _131
REMARK   52  A    between atoms: _131  and  _132
REMARK   53  A    between atoms: _131  and  _134
REMARK   54  A    between atoms: _134  and  _135
REMARK   55  A    between atoms: _140  and  _141
REMARK   56  A    between atoms: _143  and  _145
REMARK   57  A    between atoms: _145  and  _146
REMARK   58  A    between atoms: _145  and  _148
REMARK   59  A    between atoms: _148  and  _149
REMARK   60  A    between atoms: _154  and  _155
REMARK   61  A    between atoms: _157  and  _159
REMARK   62  A    between atoms: _159  and  _160
REMARK   63  A    between atoms: _159  and  _162
REMARK   64  A    between atoms: _162  and  _163
REMARK   65  A    between atoms: _168  and  _169
REMARK   66  A    between atoms: _171  and  _173
REMARK   67  A    between atoms: _173  and  _174
REMARK   68  A    between atoms: _173  and  _176
REMARK   69  A    between atoms: _179  and  _181
REMARK   70  A    between atoms: _181  and  _182
REMARK   71  A    between atoms: _181  and  _184
REMARK   72  A    between atoms: _184  and  _185
REMARK   73  A    between atoms: _191  and  _192
REMARK   74  A    between atoms: _197  and  _199
REMARK   75  A    between atoms: _199  and  _200
REMARK   76  A    between atoms: _199  and  _202
REMARK   77  A    between atoms: _202  and  _203
REMARK   78  A    between atoms: _205  and  _207
REMARK   79  A    between atoms: _207  and  _208
REMARK   80  A    between atoms: _207  and  _210
REMARK   81  A    between atoms: _210  and  _211
REMARK   82  A    between atoms: _216  and  _217
REMARK   83  A    between atoms: _219  and  _221
REMARK   84  A    between atoms: _221  and  _222
REMARK   85  A    between atoms: _221  and  _224
REMARK   86  A    between atoms: _224  and  _225
REMARK   87  A    between atoms: _230  and  _232
REMARK   88  A    between atoms: _232  and  _233
REMARK   89  A    between atoms: _232  and  _235
REMARK   90  A    between atoms: _235  and  _236
REMARK   91  A    between atoms: _241  and  _243
REMARK   92  A    between atoms: _243  and  _244
REMARK   93  A    between atoms: _243  and  _246
REMARK   94  A    between atoms: _246  and  _247
REMARK   95  A    between atoms: _247  and  _248
REMARK   96  A    between atoms: _250  and  _252
REMARK   97  A    between atoms: _252  and  _253
REMARK   98  A    between atoms: _252  and  _255
REMARK   99  A    between atoms: _255  and  _256
REMARK  100  A    between atoms: _261  and  _262
REMARK  101  A    between atoms: _264  and  _266
REMARK  102  A    between atoms: _266  and  _267
REMARK  103  A    between atoms: _266  and  _269
REMARK  104  A    between atoms: _269  and  _270
REMARK  105  A    between atoms: _273  and  _275
REMARK  106  A    between atoms: _275  and  _276
REMARK  107  A    between atoms: _275  and  _278
REMARK  108  A    between atoms: _278  and  _279
REMARK  109  A    between atoms: _279  and  _496
REMARK  110  A    between atoms: _280  and  _282
REMARK  111  A    between atoms: _282  and  _283
REMARK  112  A    between atoms: _282  and  _285
REMARK  113  A    between atoms: _285  and  _286
REMARK  114  A    between atoms: _289  and  _291
REMARK  115  A    between atoms: _291  and  _292
REMARK  116  A    between atoms: _291  and  _294
REMARK  117  A    between atoms: _294  and  _295
REMARK  118  A    between atoms: _300  and  _301
REMARK  119  A    between atoms: _303  and  _305
REMARK  120  A    between atoms: _305  and  _306
REMARK  121  A    between atoms: _305  and  _308
REMARK  122  A    between atoms: _308  and  _309
REMARK  123  A    between atoms: _314  and  _315
REMARK  124  A    between atoms: _317  and  _319
REMARK  125  A    between atoms: _319  and  _320
REMARK  126  A    between atoms: _319  and  _322
REMARK  127  A    between atoms: _322  and  _323
REMARK  128  A    between atoms: _323  and  _324
REMARK  129  A    between atoms: _327  and  _329
REMARK  130  A    between atoms: _329  and  _330
REMARK  131  A    between atoms: _329  and  _332
REMARK  132  A    between atoms: _332  and  _333
REMARK  133  A    between atoms: _338  and  _339
REMARK  134  A    between atoms: _341  and  _343
REMARK  135  A    between atoms: _343  and  _344
REMARK  136  A    between atoms: _343  and  _346
REMARK  137  A    between atoms: _346  and  _347
REMARK  138  A    between atoms: _352  and  _354
REMARK  139  A    between atoms: _354  and  _355
REMARK  140  A    between atoms: _354  and  _357
REMARK  141  A    between atoms: _357  and  _358
REMARK  142  A    between atoms: _361  and  _363
REMARK  143  A    between atoms: _363  and  _364
REMARK  144  A    between atoms: _363  and  _366
REMARK  145  A    between atoms: _366  and  _367
REMARK  146  A    between atoms: _372  and  _374
REMARK  147  A    between atoms: _374  and  _375
REMARK  148  A    between atoms: _374  and  _377
REMARK  149  A    between atoms: _377  and  _378
REMARK  150  A    between atoms: _388  and  _390
REMARK  151  A    between atoms: _390  and  _391
REMARK  152  A    between atoms: _390  and  _393
REMARK  153  A    between atoms: _393  and  _394
REMARK  154  A    between atoms: _400  and  _402
REMARK  155  A    between atoms: _402  and  _403
REMARK  156  A    between atoms: _402  and  _405
REMARK  157  A    between atoms: _405  and  _406
REMARK  158  A    between atoms: _409  and  _411
REMARK  159  A    between atoms: _411  and  _412
REMARK  160  A    between atoms: _411  and  _414
REMARK  161  A    between atoms: _414  and  _415
REMARK  162  A    between atoms: _418  and  _420
REMARK  163  A    between atoms: _420  and  _421
REMARK  164  A    between atoms: _420  and  _423
REMARK  165  A    between atoms: _423  and  _424
REMARK  166  A    between atoms: _424  and  _425
REMARK  167  A    between atoms: _425  and  _426
REMARK  168  A    between atoms: _435  and  _437
REMARK  169  A    between atoms: _437  and  _438
REMARK  170  A    between atoms: _437  and  _440
REMARK  171  A    between atoms: _440  and  _441
REMARK  172  A    between atoms: _446  and  _448
REMARK  173  A    between atoms: _448  and  _449
REMARK  174  A    between atoms: _448  and  _451
REMARK  175  A    between atoms: _451  and  _452
REMARK  176  A    between atoms: _452  and  _453
REMARK  177  A    between atoms: _453  and  _454
REMARK  178  A    between atoms: _463  and  _465
REMARK  179  A    between atoms: _465  and  _466
REMARK  180  A    between atoms: _469  and  _471
REMARK  181  A    between atoms: _471  and  _472
REMARK  182  A    between atoms: _474  and  _476
REMARK  183  A    between atoms: _476  and  _477
REMARK  184  A    between atoms: _476  and  _479
REMARK  185  A    between atoms: _479  and  _480
REMARK  186  A    between atoms: _490  and  _492
REMARK  187  A    between atoms: _492  and  _493
REMARK  188  A    between atoms: _492  and  _495
REMARK  189  A    between atoms: _495  and  _496
REMARK  190  A    between atoms: _497  and  _499
REMARK  191  A    between atoms: _499  and  _500
REMARK  192  A    between atoms: _503  and  _505
REMARK  193  A    between atoms: _505  and  _506
REMARK  194  A    between atoms: _505  and  _508
REMARK  195  A    between atoms: _508  and  _509
REMARK  196  A    between atoms: _512  and  _514
REMARK  197  A    between atoms: _514  and  _515
REMARK  198  A    between atoms: _514  and  _517
REMARK  199  A    between atoms: _517  and  _518
REMARK  200  A    between atoms: _523  and  _524
REMARK  201  A    between atoms: _526  and  _528
REMARK  202  A    between atoms: _528  and  _529
REMARK  203  A    between atoms: _528  and  _531
REMARK  204  A    between atoms: _531  and  _532
REMARK  205  A    between atoms: _534  and  _536
REMARK  206  A    between atoms: _536  and  _537
REMARK  207  A    between atoms: _536  and  _539
REMARK  208  A    between atoms: _539  and  _540
REMARK  209  A    between atoms: _546  and  _548
REMARK  210  A    between atoms: _548  and  _549
REMARK  211  A    between atoms: _548  and  _551
REMARK  212  A    between atoms: _551  and  _552
REMARK  213  A    between atoms: _555  and  _557
REMARK  214  A    between atoms: _557  and  _558
REMARK  215  A    between atoms: _557  and  _560
REMARK  216  A    between atoms: _560  and  _561
REMARK  217  A    between atoms: _563  and  _565
REMARK  218  A    between atoms: _565  and  _566
REMARK  219  A    between atoms: _565  and  _568
REMARK  220  A    between atoms: _568  and  _569
REMARK  221  A    between atoms: _574  and  _576
REMARK  222  A    between atoms: _576  and  _577
REMARK  223  A    between atoms: _576  and  _579
REMARK  224  A    between atoms: _579  and  _580
REMARK  225  A    between atoms: _585  and  _587
REMARK  226  A    between atoms: _587  and  _588
REMARK  227  A    between atoms: _587  and  _590
REMARK  228  A    between atoms: _590  and  _591
REMARK  229  A    between atoms: _594  and  _596
REMARK  230  A    between atoms: _596  and  _597
REMARK  231  A    between atoms: _600  and  _602
REMARK  232  A    between atoms: _602  and  _603
REMARK  233  A    between atoms: _602  and  _605
REMARK  234  A    between atoms: _605  and  _606
REMARK  235  A    between atoms: _611  and  _612
REMARK  236  A    between atoms: _614  and  _616
REMARK  237  A    between atoms: _616  and  _617
REMARK  238  A    between atoms: _616  and  _619
REMARK  239  A    between atoms: _619  and  _620
REMARK  240  A    between atoms: _625  and  _626
REMARK  241  A    between atoms: _628  and  _630
REMARK  242  A    between atoms: _630  and  _631
REMARK  243  A    between atoms: _630  and  _633
REMARK  244  A    between atoms: _636  and  _638
REMARK  245  A    between atoms: _638  and  _639
REMARK  246  A    between atoms: _638  and  _641
REMARK  247  A    between atoms: _641  and  _642
REMARK  248  A    between atoms: _647  and  _649
REMARK  249  A    between atoms: _649  and  _650
REMARK  250  A    between atoms: _653  and  _655
REMARK  251  A    between atoms: _655  and  _656
REMARK  252  A    between atoms: _655  and  _658
REMARK  253  A    between atoms: _658  and  _659
REMARK  254  A    between atoms: _659  and  _660
REMARK  255  A    between atoms: _660  and  _661
REMARK  256  A    between atoms: _670  and  _672
REMARK  257  A    between atoms: _672  and  _673
REMARK  258  A    between atoms: _672  and  _675
REMARK  259  A    between atoms: _675  and  _676
REMARK  260  A    between atoms: _679  and  _681
REMARK  261  A    between atoms: _681  and  _682
REMARK  262  A    between atoms: _681  and  _684
REMARK  263  A    between atoms: _684  and  _685
REMARK  264  A    between atoms: _688  and  _690
REMARK  265  A    between atoms: _690  and  _691
REMARK  266  A    between atoms: _690  and  _693
REMARK  267  A    between atoms: _693  and  _694
REMARK  268  A    between atoms: _724  and  _725
REMARK  269  A    between atoms: _725  and  _731
REMARK                            x       y       z     vdW  Elec       q    Type
REMARK                         _______ _______ _______ _____ _____    ______ ____
ROOT
ATOM      1  O   HOH     1      -3.972  22.801  14.893  0.00  0.00    +0.000 OA
ENDROOT
TORSDOF 0
REMARK  Name = ../refined-set-2016/1b3h/1b3h_pocket.pdb
REMARK  269 active torsions:
REMARK  status: ('A' for Active; 'I' for Inactive)
REMARK    1  A    between atoms: _1  and  _3
REMARK    2  A    between atoms: _3  and  _4
REMARK    3  A    between atoms: _3  and  _6
REMARK    4  A    between atoms: _6  and  _7
REMARK    5  A    between atoms: _12  and  _14
REMARK    6  A    between atoms: _14  and  _15
REMARK    7  A    between atoms: _17  and  _19
REMARK    8  A    between atoms: _19  and  _20
REMARK    9  A    between atoms: _19  and  _22
REMARK   10  A    between atoms: _22  and  _23
REMARK   11  A    between atoms: _25  and  _27
REMARK   12  A    between atoms: _27  and  _28
REMARK   13  A    between atoms: _27  and  _30
REMARK   14  A    between atoms: _30  and  _31
REMARK   15  A    between atoms: _31  and  _32
REMARK   16  A    between atoms: _37  and  _39
REMARK   17  A    between atoms: _39  and  _40
REMARK   18  A    between atoms: _39  and  _42
REMARK   19  A    between atoms: _42  and  _43
REMARK   20  A    between atoms: _46  and  _48
REMARK   21  A    between atoms: _48  and  _49
REMARK   22  A    between atoms: _48  and  _51
REMARK   23  A    between atoms: _51  and  _52
REMARK   24  A    between atoms: _52  and  _53
REMARK   25  A    between atoms: _56  and  _58
REMARK   26  A    between atoms: _58  and  _59
REMARK   27  A    between atoms: _61  and  _63
REMARK   28  A    between atoms: _63  and  _64
REMARK   29  A    between atoms: _63  and  _66
REMARK   30  A    between atoms: _70  and  _71
REMARK   31  A    between atoms: _76  and  _78
REMARK   32  A    between atoms: _78  and  _79
REMARK   33  A    between atoms: _78  and  _81
REMARK   34  A    between atoms: _81  and  _82
REMARK   35  A    between atoms: _82  and  _83
REMARK   36  A    between atoms: _86  and  _88
REMARK   37  A    between atoms: _88  and  _89
REMARK   38  A    between atoms: _88  and  _91
REMARK   39  A    between atoms: _91  and  _92
REMARK   40  A    between atoms: _94  and  _96
REMARK   41  A    between atoms: _96  and  _97
REMARK   42  A    between atoms: _96  and  _99
REMARK   43  A    between atoms: _99  and  _100
REMARK   44  A    between atoms: _105  and  _107
REMARK   45  A    between atoms: _107  and  _108
REMARK   46  A    between atoms: _107  and  _110
REMARK   47  A    between atoms: _110  and  _111
REMARK   48  A    between atoms: _111  and  _112
REMARK   49  A    between atoms: _112  and  _113
REMARK   50  A    between atoms: _123  and  _124
REMARK   51  A    between atoms: _129  and  _131
REMARK   52  A    between atoms: _131  and  _132
REMARK   53  A    between atoms: _131  and  _134
REMARK   54  A    between atoms: _134  and  _135
REMARK   55  A    between atoms: _140  and  _141
REMARK   56  A    between atoms: _143  and  _145
REMARK   57  A    between atoms: _145  and  _146
REMARK   58  A    between atoms: _145  and  _148
REMARK   59  A    between atoms: _148  and  _149
REMARK   60  A    between atoms: _154  and  _155
REMARK   61  A    between atoms: _157  and  _159
REMARK   62  A    between atoms: _159  and  _160
REMARK   63  A    between atoms: _159  and  _162
REMARK   64  A    between atoms: _162  and  _163
REMARK   65  A    between atoms: _168  and  _169
REMARK   66  A    between atoms: _171  and  _173
REMARK   67  A    between atoms: _173  and  _174
REMARK   68  A    between atoms: _173  and  _176
REMARK   69  A    between atoms: _179  and  _181
REMARK   70  A    between atoms: _181  and  _182
REMARK   71  A    between atoms: _181  and  _184
REMARK   72  A    between atoms: _184  and  _185
REMARK   73  A    between atoms: _191  and  _192
REMARK   74  A    between atoms: _197  and  _199
REMARK   75  A    between atoms: _199  and  _200
REMARK   76  A    between atoms: _199  and  _202
REMARK   77  A    between atoms: _202  and  _203
REMARK   78  A    between atoms: _205  and  _207
REMARK   79  A    between atoms: _207  and  _208
REMARK   80  A    between atoms: _207  and  _210
REMARK   81  A    between atoms: _210  and  _211
REMARK   82  A    between atoms: _216  and  _217
REMARK   83  A    between atoms: _219  and  _221
REMARK   84  A    between atoms: _221  and  _222
REMARK   85  A    between atoms: _221  and  _224
REMARK   86  A    between atoms: _224  and  _225
REMARK   87  A    between atoms: _230  and  _232
REMARK   88  A    between atoms: _232  and  _233
REMARK   89  A    between atoms: _232  and  _235
REMARK   90  A    between atoms: _235  and  _236
REMARK   91  A    between atoms: _241  and  _243
REMARK   92  A    between atoms: _243  and  _244
REMARK   93  A    between atoms: _243  and  _246
REMARK   94  A    between atoms: _246  and  _247
REMARK   95  A    between atoms: _247  and  _248
REMARK   96  A    between atoms: _250  and  _252
REMARK   97  A    between atoms: _252  and  _253
REMARK   98  A    between atoms: _252  and  _255
REMARK   99  A    between atoms: _255  and  _256
REMARK  100  A    between atoms: _261  and  _262
REMARK  101  A    between atoms: _264  and  _266
REMARK  102  A    between atoms: _266  and  _267
REMARK  103  A    between atoms: _266  and  _269
REMARK  104  A    between atoms: _269  and  _270
REMARK  105  A    between atoms: _273  and  _275
REMARK  106  A    between atoms: _275  and  _276
REMARK  107  A    between atoms: _275  and  _278
REMARK  108  A    between atoms: _278  and  _279
REMARK  109  A    between atoms: _279  and  _496
REMARK  110  A    between atoms: _280  and  _282
REMARK  111  A    between atoms: _282  and  _283
REMARK  112  A    between atoms: _282  and  _285
REMARK  113  A    between atoms: _285  and  _286
REMARK  114  A    between atoms: _289  and  _291
REMARK  115  A    between atoms: _291  and  _292
REMARK  116  A    between atoms: _291  and  _294
REMARK  117  A    between atoms: _294  and  _295
REMARK  118  A    between atoms: _300  and  _301
REMARK  119  A    between atoms: _303  and  _305
REMARK  120  A    between atoms: _305  and  _306
REMARK  121  A    between atoms: _305  and  _308
REMARK  122  A    between atoms: _308  and  _309
REMARK  123  A    between atoms: _314  and  _315
REMARK  124  A    between atoms: _317  and  _319
REMARK  125  A    between atoms: _319  and  _320
REMARK  126  A    between atoms: _319  and  _322
REMARK  127  A    between atoms: _322  and  _323
REMARK  128  A    between atoms: _323  and  _324
REMARK  129  A    between atoms: _327  and  _329
REMARK  130  A    between atoms: _329  and  _330
REMARK  131  A    between atoms: _329  and  _332
REMARK  132  A    between atoms: _332  and  _333
REMARK  133  A    between atoms: _338  and  _339
REMARK  134  A    between atoms: _341  and  _343
REMARK  135  A    between atoms: _343  and  _344
REMARK  136  A    between atoms: _343  and  _346
REMARK  137  A    between atoms: _346  and  _347
REMARK  138  A    between atoms: _352  and  _354
REMARK  139  A    between atoms: _354  and  _355
REMARK  140  A    between atoms: _354  and  _357
REMARK  141  A    between atoms: _357  and  _358
REMARK  142  A    between atoms: _361  and  _363
REMARK  143  A    between atoms: _363  and  _364
REMARK  144  A    between atoms: _363  and  _366
REMARK  145  A    between atoms: _366  and  _367
REMARK  146  A    between atoms: _372  and  _374
REMARK  147  A    between atoms: _374  and  _375
REMARK  148  A    between atoms: _374  and  _377
REMARK  149  A    between atoms: _377  and  _378
REMARK  150  A    between atoms: _388  and  _390
REMARK  151  A    between atoms: _390  and  _391
REMARK  152  A    between atoms: _390  and  _393
REMARK  153  A    between atoms: _393  and  _394
REMARK  154  A    between atoms: _400  and  _402
REMARK  155  A    between atoms: _402  and  _403
REMARK  156  A    between atoms: _402  and  _405
REMARK  157  A    between atoms: _405  and  _406
REMARK  158  A    between atoms: _409  and  _411
REMARK  159  A    between atoms: _411  and  _412
REMARK  160  A    between atoms: _411  and  _414
REMARK  161  A    between atoms: _414  and  _415
REMARK  162  A    between atoms: _418  and  _420
REMARK  163  A    between atoms: _420  and  _421
REMARK  164  A    between atoms: _420  and  _423
REMARK  165  A    between atoms: _423  and  _424
REMARK  166  A    between atoms: _424  and  _425
REMARK  167  A    between atoms: _425  and  _426
REMARK  168  A    between atoms: _435  and  _437
REMARK  169  A    between atoms: _437  and  _438
REMARK  170  A    between atoms: _437  and  _440
REMARK  171  A    between atoms: _440  and  _441
REMARK  172  A    between atoms: _446  and  _448
REMARK  173  A    between atoms: _448  and  _449
REMARK  174  A    between atoms: _448  and  _451
REMARK  175  A    between atoms: _451  and  _452
REMARK  176  A    between atoms: _452  and  _453
REMARK  177  A    between atoms: _453  and  _454
REMARK  178  A    between atoms: _463  and  _465
REMARK  179  A    between atoms: _465  and  _466
REMARK  180  A    between atoms: _469  and  _471
REMARK  181  A    between atoms: _471  and  _472
REMARK  182  A    between atoms: _474  and  _476
REMARK  183  A    between atoms: _476  and  _477
REMARK  184  A    between atoms: _476  and  _479
REMARK  185  A    between atoms: _479  and  _480
REMARK  186  A    between atoms: _490  and  _492
REMARK  187  A    between atoms: _492  and  _493
REMARK  188  A    between atoms: _492  and  _495
REMARK  189  A    between atoms: _495  and  _496
REMARK  190  A    between atoms: _497  and  _499
REMARK  191  A    between atoms: _499  and  _500
REMARK  192  A    between atoms: _503  and  _505
REMARK  193  A    between atoms: _505  and  _506
REMARK  194  A    between atoms: _505  and  _508
REMARK  195  A    between atoms: _508  and  _509
REMARK  196  A    between atoms: _512  and  _514
REMARK  197  A    between atoms: _514  and  _515
REMARK  198  A    between atoms: _514  and  _517
REMARK  199  A    between atoms: _517  and  _518
REMARK  200  A    between atoms: _523  and  _524
REMARK  201  A    between atoms: _526  and  _528
REMARK  202  A    between atoms: _528  and  _529
REMARK  203  A    between atoms: _528  and  _531
REMARK  204  A    between atoms: _531  and  _532
REMARK  205  A    between atoms: _534  and  _536
REMARK  206  A    between atoms: _536  and  _537
REMARK  207  A    between atoms: _536  and  _539
REMARK  208  A    between atoms: _539  and  _540
REMARK  209  A    between atoms: _546  and  _548
REMARK  210  A    between atoms: _548  and  _549
REMARK  211  A    between atoms: _548  and  _551
REMARK  212  A    between atoms: _551  and  _552
REMARK  213  A    between atoms: _555  and  _557
REMARK  214  A    between atoms: _557  and  _558
REMARK  215  A    between atoms: _557  and  _560
REMARK  216  A    between atoms: _560  and  _561
REMARK  217  A    between atoms: _563  and  _565
REMARK  218  A    between atoms: _565  and  _566
REMARK  219  A    between atoms: _565  and  _568
REMARK  220  A    between atoms: _568  and  _569
REMARK  221  A    between atoms: _574  and  _576
REMARK  222  A    between atoms: _576  and  _577
REMARK  223  A    between atoms: _576  and  _579
REMARK  224  A    between atoms: _579  and  _580
REMARK  225  A    between atoms: _585  and  _587
REMARK  226  A    between atoms: _587  and  _588
REMARK  227  A    between atoms: _587  and  _590
REMARK  228  A    between atoms: _590  and  _591
REMARK  229  A    between atoms: _594  and  _596
REMARK  230  A    between atoms: _596  and  _597
REMARK  231  A    between atoms: _600  and  _602
REMARK  232  A    between atoms: _602  and  _603
REMARK  233  A    between atoms: _602  and  _605
REMARK  234  A    between atoms: _605  and  _606
REMARK  235  A    between atoms: _611  and  _612
REMARK  236  A    between atoms: _614  and  _616
REMARK  237  A    between atoms: _616  and  _617
REMARK  238  A    between atoms: _616  and  _619
REMARK  239  A    between atoms: _619  and  _620
REMARK  240  A    between atoms: _625  and  _626
REMARK  241  A    between atoms: _628  and  _630
REMARK  242  A    between atoms: _630  and  _631
REMARK  243  A    between atoms: _630  and  _633
REMARK  244  A    between atoms: _636  and  _638
REMARK  245  A    between atoms: _638  and  _639
REMARK  246  A    between atoms: _638  and  _641
REMARK  247  A    between atoms: _641  and  _642
REMARK  248  A    between atoms: _647  and  _649
REMARK  249  A    between atoms: _649  and  _650
REMARK  250  A    between atoms: _653  and  _655
REMARK  251  A    between atoms: _655  and  _656
REMARK  252  A    between atoms: _655  and  _658
REMARK  253  A    between atoms: _658  and  _659
REMARK  254  A    between atoms: _659  and  _660
REMARK  255  A    between atoms: _660  and  _661
REMARK  256  A    between atoms: _670  and  _672
REMARK  257  A    between atoms: _672  and  _673
REMARK  258  A    between atoms: _672  and  _675
REMARK  259  A    between atoms: _675  and  _676
REMARK  260  A    between atoms: _679  and  _681
REMARK  261  A    between atoms: _681  and  _682
REMARK  262  A    between atoms: _681  and  _684
REMARK  263  A    between atoms: _684  and  _685
REMARK  264  A    between atoms: _688  and  _690
REMARK  265  A    between atoms: _690  and  _691
REMARK  266  A    between atoms: _690  and  _693
REMARK  267  A    between atoms: _693  and  _694
REMARK  268  A    between atoms: _724  and  _725
REMARK  269  A    between atoms: _725  and  _731
REMARK                            x       y       z     vdW  Elec       q    Type
REMARK                         _______ _______ _______ _____ _____    ______ ____
ROOT
ATOM      1  O   HOH     1       2.015  14.878   8.444  0.00  0.00    +0.000 OA
ENDROOT
TORSDOF 0
REMARK  Name = ../refined-set-2016/1b3h/1b3h_pocket.pdb
REMARK  269 active torsions:
REMARK  status: ('A' for Active; 'I' for Inactive)
REMARK    1  A    between atoms: _1  and  _3
REMARK    2  A    between atoms: _3  and  _4
REMARK    3  A    between atoms: _3  and  _6
REMARK    4  A    between atoms: _6  and  _7
REMARK    5  A    between atoms: _12  and  _14
REMARK    6  A    between atoms: _14  and  _15
REMARK    7  A    between atoms: _17  and  _19
REMARK    8  A    between atoms: _19  and  _20
REMARK    9  A    between atoms: _19  and  _22
REMARK   10  A    between atoms: _22  and  _23
REMARK   11  A    between atoms: _25  and  _27
REMARK   12  A    between atoms: _27  and  _28
REMARK   13  A    between atoms: _27  and  _30
REMARK   14  A    between atoms: _30  and  _31
REMARK   15  A    between atoms: _31  and  _32
REMARK   16  A    between atoms: _37  and  _39
REMARK   17  A    between atoms: _39  and  _40
REMARK   18  A    between atoms: _39  and  _42
REMARK   19  A    between atoms: _42  and  _43
REMARK   20  A    between atoms: _46  and  _48
REMARK   21  A    between atoms: _48  and  _49
REMARK   22  A    between atoms: _48  and  _51
REMARK   23  A    between atoms: _51  and  _52
REMARK   24  A    between atoms: _52  and  _53
REMARK   25  A    between atoms: _56  and  _58
REMARK   26  A    between atoms: _58  and  _59
REMARK   27  A    between atoms: _61  and  _63
REMARK   28  A    between atoms: _63  and  _64
REMARK   29  A    between atoms: _63  and  _66
REMARK   30  A    between atoms: _70  and  _71
REMARK   31  A    between atoms: _76  and  _78
REMARK   32  A    between atoms: _78  and  _79
REMARK   33  A    between atoms: _78  and  _81
REMARK   34  A    between atoms: _81  and  _82
REMARK   35  A    between atoms: _82  and  _83
REMARK   36  A    between atoms: _86  and  _88
REMARK   37  A    between atoms: _88  and  _89
REMARK   38  A    between atoms: _88  and  _91
REMARK   39  A    between atoms: _91  and  _92
REMARK   40  A    between atoms: _94  and  _96
REMARK   41  A    between atoms: _96  and  _97
REMARK   42  A    between atoms: _96  and  _99
REMARK   43  A    between atoms: _99  and  _100
REMARK   44  A    between atoms: _105  and  _107
REMARK   45  A    between atoms: _107  and  _108
REMARK   46  A    between atoms: _107  and  _110
REMARK   47  A    between atoms: _110  and  _111
REMARK   48  A    between atoms: _111  and  _112
REMARK   49  A    between atoms: _112  and  _113
REMARK   50  A    between atoms: _123  and  _124
REMARK   51  A    between atoms: _129  and  _131
REMARK   52  A    between atoms: _131  and  _132
REMARK   53  A    between atoms: _131  and  _134
REMARK   54  A    between atoms: _134  and  _135
REMARK   55  A    between atoms: _140  and  _141
REMARK   56  A    between atoms: _143  and  _145
REMARK   57  A    between atoms: _145  and  _146
REMARK   58  A    between atoms: _145  and  _148
REMARK   59  A    between atoms: _148  and  _149
REMARK   60  A    between atoms: _154  and  _155
REMARK   61  A    between atoms: _157  and  _159
REMARK   62  A    between atoms: _159  and  _160
REMARK   63  A    between atoms: _159  and  _162
REMARK   64  A    between atoms: _162  and  _163
REMARK   65  A    between atoms: _168  and  _169
REMARK   66  A    between atoms: _171  and  _173
REMARK   67  A    between atoms: _173  and  _174
REMARK   68  A    between atoms: _173  and  _176
REMARK   69  A    between atoms: _179  and  _181
REMARK   70  A    between atoms: _181  and  _182
REMARK   71  A    between atoms: _181  and  _184
REMARK   72  A    between atoms: _184  and  _185
REMARK   73  A    between atoms: _191  and  _192
REMARK   74  A    between atoms: _197  and  _199
REMARK   75  A    between atoms: _199  and  _200
REMARK   76  A    between atoms: _199  and  _202
REMARK   77  A    between atoms: _202  and  _203
REMARK   78  A    between atoms: _205  and  _207
REMARK   79  A    between atoms: _207  and  _208
REMARK   80  A    between atoms: _207  and  _210
REMARK   81  A    between atoms: _210  and  _211
REMARK   82  A    between atoms: _216  and  _217
REMARK   83  A    between atoms: _219  and  _221
REMARK   84  A    between atoms: _221  and  _222
REMARK   85  A    between atoms: _221  and  _224
REMARK   86  A    between atoms: _224  and  _225
REMARK   87  A    between atoms: _230  and  _232
REMARK   88  A    between atoms: _232  and  _233
REMARK   89  A    between atoms: _232  and  _235
REMARK   90  A    between atoms: _235  and  _236
REMARK   91  A    between atoms: _241  and  _243
REMARK   92  A    between atoms: _243  and  _244
REMARK   93  A    between atoms: _243  and  _246
REMARK   94  A    between atoms: _246  and  _247
REMARK   95  A    between atoms: _247  and  _248
REMARK   96  A    between atoms: _250  and  _252
REMARK   97  A    between atoms: _252  and  _253
REMARK   98  A    between atoms: _252  and  _255
REMARK   99  A    between atoms: _255  and  _256
REMARK  100  A    between atoms: _261  and  _262
REMARK  101  A    between atoms: _264  and  _266
REMARK  102  A    between atoms: _266  and  _267
REMARK  103  A    between atoms: _266  and  _269
REMARK  104  A    between atoms: _269  and  _270
REMARK  105  A    between atoms: _273  and  _275
REMARK  106  A    between atoms: _275  and  _276
REMARK  107  A    between atoms: _275  and  _278
REMARK  108  A    between atoms: _278  and  _279
REMARK  109  A    between atoms: _279  and  _496
REMARK  110  A    between atoms: _280  and  _282
REMARK  111  A    between atoms: _282  and  _283
REMARK  112  A    between atoms: _282  and  _285
REMARK  113  A    between atoms: _285  and  _286
REMARK  114  A    between atoms: _289  and  _291
REMARK  115  A    between atoms: _291  and  _292
REMARK  116  A    between atoms: _291  and  _294
REMARK  117  A    between atoms: _294  and  _295
REMARK  118  A    between atoms: _300  and  _301
REMARK  119  A    between atoms: _303  and  _305
REMARK  120  A    between atoms: _305  and  _306
REMARK  121  A    between atoms: _305  and  _308
REMARK  122  A    between atoms: _308  and  _309
REMARK  123  A    between atoms: _314  and  _315
REMARK  124  A    between atoms: _317  and  _319
REMARK  125  A    between atoms: _319  and  _320
REMARK  126  A    between atoms: _319  and  _322
REMARK  127  A    between atoms: _322  and  _323
REMARK  128  A    between atoms: _323  and  _324
REMARK  129  A    between atoms: _327  and  _329
REMARK  130  A    between atoms: _329  and  _330
REMARK  131  A    between atoms: _329  and  _332
REMARK  132  A    between atoms: _332  and  _333
REMARK  133  A    between atoms: _338  and  _339
REMARK  134  A    between atoms: _341  and  _343
REMARK  135  A    between atoms: _343  and  _344
REMARK  136  A    between atoms: _343  and  _346
REMARK  137  A    between atoms: _346  and  _347
REMARK  138  A    between atoms: _352  and  _354
REMARK  139  A    between atoms: _354  and  _355
REMARK  140  A    between atoms: _354  and  _357
REMARK  141  A    between atoms: _357  and  _358
REMARK  142  A    between atoms: _361  and  _363
REMARK  143  A    between atoms: _363  and  _364
REMARK  144  A    between atoms: _363  and  _366
REMARK  145  A    between atoms: _366  and  _367
REMARK  146  A    between atoms: _372  and  _374
REMARK  147  A    between atoms: _374  and  _375
REMARK  148  A    between atoms: _374  and  _377
REMARK  149  A    between atoms: _377  and  _378
REMARK  150  A    between atoms: _388  and  _390
REMARK  151  A    between atoms: _390  and  _391
REMARK  152  A    between atoms: _390  and  _393
REMARK  153  A    between atoms: _393  and  _394
REMARK  154  A    between atoms: _400  and  _402
REMARK  155  A    between atoms: _402  and  _403
REMARK  156  A    between atoms: _402  and  _405
REMARK  157  A    between atoms: _405  and  _406
REMARK  158  A    between atoms: _409  and  _411
REMARK  159  A    between atoms: _411  and  _412
REMARK  160  A    between atoms: _411  and  _414
REMARK  161  A    between atoms: _414  and  _415
REMARK  162  A    between atoms: _418  and  _420
REMARK  163  A    between atoms: _420  and  _421
REMARK  164  A    between atoms: _420  and  _423
REMARK  165  A    between atoms: _423  and  _424
REMARK  166  A    between atoms: _424  and  _425
REMARK  167  A    between atoms: _425  and  _426
REMARK  168  A    between atoms: _435  and  _437
REMARK  169  A    between atoms: _437  and  _438
REMARK  170  A    between atoms: _437  and  _440
REMARK  171  A    between atoms: _440  and  _441
REMARK  172  A    between atoms: _446  and  _448
REMARK  173  A    between atoms: _448  and  _449
REMARK  174  A    between atoms: _448  and  _451
REMARK  175  A    between atoms: _451  and  _452
REMARK  176  A    between atoms: _452  and  _453
REMARK  177  A    between atoms: _453  and  _454
REMARK  178  A    between atoms: _463  and  _465
REMARK  179  A    between atoms: _465  and  _466
REMARK  180  A    between atoms: _469  and  _471
REMARK  181  A    between atoms: _471  and  _472
REMARK  182  A    between atoms: _474  and  _476
REMARK  183  A    between atoms: _476  and  _477
REMARK  184  A    between atoms: _476  and  _479
REMARK  185  A    between atoms: _479  and  _480
REMARK  186  A    between atoms: _490  and  _492
REMARK  187  A    between atoms: _492  and  _493
REMARK  188  A    between atoms: _492  and  _495
REMARK  189  A    between atoms: _495  and  _496
REMARK  190  A    between atoms: _497  and  _499
REMARK  191  A    between atoms: _499  and  _500
REMARK  192  A    between atoms: _503  and  _505
REMARK  193  A    between atoms: _505  and  _506
REMARK  194  A    between atoms: _505  and  _508
REMARK  195  A    between atoms: _508  and  _509
REMARK  196  A    between atoms: _512  and  _514
REMARK  197  A    between atoms: _514  and  _515
REMARK  198  A    between atoms: _514  and  _517
REMARK  199  A    between atoms: _517  and  _518
REMARK  200  A    between atoms: _523  and  _524
REMARK  201  A    between atoms: _526  and  _528
REMARK  202  A    between atoms: _528  and  _529
REMARK  203  A    between atoms: _528  and  _531
REMARK  204  A    between atoms: _531  and  _532
REMARK  205  A    between atoms: _534  and  _536
REMARK  206  A    between atoms: _536  and  _537
REMARK  207  A    between atoms: _536  and  _539
REMARK  208  A    between atoms: _539  and  _540
REMARK  209  A    between atoms: _546  and  _548
REMARK  210  A    between atoms: _548  and  _549
REMARK  211  A    between atoms: _548  and  _551
REMARK  212  A    between atoms: _551  and  _552
REMARK  213  A    between atoms: _555  and  _557
REMARK  214  A    between atoms: _557  and  _558
REMARK  215  A    between atoms: _557  and  _560
REMARK  216  A    between atoms: _560  and  _561
REMARK  217  A    between atoms: _563  and  _565
REMARK  218  A    between atoms: _565  and  _566
REMARK  219  A    between atoms: _565  and  _568
REMARK  220  A    between atoms: _568  and  _569
REMARK  221  A    between atoms: _574  and  _576
REMARK  222  A    between atoms: _576  and  _577
REMARK  223  A    between atoms: _576  and  _579
REMARK  224  A    between atoms: _579  and  _580
REMARK  225  A    between atoms: _585  and  _587
REMARK  226  A    between atoms: _587  and  _588
REMARK  227  A    between atoms: _587  and  _590
REMARK  228  A    between atoms: _590  and  _591
REMARK  229  A    between atoms: _594  and  _596
REMARK  230  A    between atoms: _596  and  _597
REMARK  231  A    between atoms: _600  and  _602
REMARK  232  A    between atoms: _602  and  _603
REMARK  233  A    between atoms: _602  and  _605
REMARK  234  A    between atoms: _605  and  _606
REMARK  235  A    between atoms: _611  and  _612
REMARK  236  A    between atoms: _614  and  _616
REMARK  237  A    between atoms: _616  and  _617
REMARK  238  A    between atoms: _616  and  _619
REMARK  239  A    between atoms: _619  and  _620
REMARK  240  A    between atoms: _625  and  _626
REMARK  241  A    between atoms: _628  and  _630
REMARK  242  A    between atoms: _630  and  _631
REMARK  243  A    between atoms: _630  and  _633
REMARK  244  A    between atoms: _636  and  _638
REMARK  245  A    between atoms: _638  and  _639
REMARK  246  A    between atoms: _638  and  _641
REMARK  247  A    between atoms: _641  and  _642
REMARK  248  A    between atoms: _647  and  _649
REMARK  249  A    between atoms: _649  and  _650
REMARK  250  A    between atoms: _653  and  _655
REMARK  251  A    between atoms: _655  and  _656
REMARK  252  A    between atoms: _655  and  _658
REMARK  253  A    between atoms: _658  and  _659
REMARK  254  A    between atoms: _659  and  _660
REMARK  255  A    between atoms: _660  and  _661
REMARK  256  A    between atoms: _670  and  _672
REMARK  257  A    between atoms: _672  and  _673
REMARK  258  A    between atoms: _672  and  _675
REMARK  259  A    between atoms: _675  and  _676
REMARK  260  A    between atoms: _679  and  _681
REMARK  261  A    between atoms: _681  and  _682
REMARK  262  A    between atoms: _681  and  _684
REMARK  263  A    between atoms: _684  and  _685
REMARK  264  A    between atoms: _688  and  _690
REMARK  265  A    between atoms: _690  and  _691
REMARK  266  A    between atoms: _690  and  _693
REMARK  267  A    between atoms: _693  and  _694
REMARK  268  A    between atoms: _724  and  _725
REMARK  269  A    between atoms: _725  and  _731
REMARK                            x       y       z     vdW  Elec       q    Type
REMARK                         _______ _______ _______ _____ _____    ______ ____
ROOT
ATOM      1  O   HOH     1       1.588  14.774  11.168  0.00  0.00    +0.000 OA
ENDROOT
TORSDOF 0
REMARK  Name = ../refined-set-2016/1b3h/1b3h_pocket.pdb
REMARK  269 active torsions:
REMARK  status: ('A' for Active; 'I' for Inactive)
REMARK    1  A    between atoms: _1  and  _3
REMARK    2  A    between atoms: _3  and  _4
REMARK    3  A    between atoms: _3  and  _6
REMARK    4  A    between atoms: _6  and  _7
REMARK    5  A    between atoms: _12  and  _14
REMARK    6  A    between atoms: _14  and  _15
REMARK    7  A    between atoms: _17  and  _19
REMARK    8  A    between atoms: _19  and  _20
REMARK    9  A    between atoms: _19  and  _22
REMARK   10  A    between atoms: _22  and  _23
REMARK   11  A    between atoms: _25  and  _27
REMARK   12  A    between atoms: _27  and  _28
REMARK   13  A    between atoms: _27  and  _30
REMARK   14  A    between atoms: _30  and  _31
REMARK   15  A    between atoms: _31  and  _32
REMARK   16  A    between atoms: _37  and  _39
REMARK   17  A    between atoms: _39  and  _40
REMARK   18  A    between atoms: _39  and  _42
REMARK   19  A    between atoms: _42  and  _43
REMARK   20  A    between atoms: _46  and  _48
REMARK   21  A    between atoms: _48  and  _49
REMARK   22  A    between atoms: _48  and  _51
REMARK   23  A    between atoms: _51  and  _52
REMARK   24  A    between atoms: _52  and  _53
REMARK   25  A    between atoms: _56  and  _58
REMARK   26  A    between atoms: _58  and  _59
REMARK   27  A    between atoms: _61  and  _63
REMARK   28  A    between atoms: _63  and  _64
REMARK   29  A    between atoms: _63  and  _66
REMARK   30  A    between atoms: _70  and  _71
REMARK   31  A    between atoms: _76  and  _78
REMARK   32  A    between atoms: _78  and  _79
REMARK   33  A    between atoms: _78  and  _81
REMARK   34  A    between atoms: _81  and  _82
REMARK   35  A    between atoms: _82  and  _83
REMARK   36  A    between atoms: _86  and  _88
REMARK   37  A    between atoms: _88  and  _89
REMARK   38  A    between atoms: _88  and  _91
REMARK   39  A    between atoms: _91  and  _92
REMARK   40  A    between atoms: _94  and  _96
REMARK   41  A    between atoms: _96  and  _97
REMARK   42  A    between atoms: _96  and  _99
REMARK   43  A    between atoms: _99  and  _100
REMARK   44  A    between atoms: _105  and  _107
REMARK   45  A    between atoms: _107  and  _108
REMARK   46  A    between atoms: _107  and  _110
REMARK   47  A    between atoms: _110  and  _111
REMARK   48  A    between atoms: _111  and  _112
REMARK   49  A    between atoms: _112  and  _113
REMARK   50  A    between atoms: _123  and  _124
REMARK   51  A    between atoms: _129  and  _131
REMARK   52  A    between atoms: _131  and  _132
REMARK   53  A    between atoms: _131  and  _134
REMARK   54  A    between atoms: _134  and  _135
REMARK   55  A    between atoms: _140  and  _141
REMARK   56  A    between atoms: _143  and  _145
REMARK   57  A    between atoms: _145  and  _146
REMARK   58  A    between atoms: _145  and  _148
REMARK   59  A    between atoms: _148  and  _149
REMARK   60  A    between atoms: _154  and  _155
REMARK   61  A    between atoms: _157  and  _159
REMARK   62  A    between atoms: _159  and  _160
REMARK   63  A    between atoms: _159  and  _162
REMARK   64  A    between atoms: _162  and  _163
REMARK   65  A    between atoms: _168  and  _169
REMARK   66  A    between atoms: _171  and  _173
REMARK   67  A    between atoms: _173  and  _174
REMARK   68  A    between atoms: _173  and  _176
REMARK   69  A    between atoms: _179  and  _181
REMARK   70  A    between atoms: _181  and  _182
REMARK   71  A    between atoms: _181  and  _184
REMARK   72  A    between atoms: _184  and  _185
REMARK   73  A    between atoms: _191  and  _192
REMARK   74  A    between atoms: _197  and  _199
REMARK   75  A    between atoms: _199  and  _200
REMARK   76  A    between atoms: _199  and  _202
REMARK   77  A    between atoms: _202  and  _203
REMARK   78  A    between atoms: _205  and  _207
REMARK   79  A    between atoms: _207  and  _208
REMARK   80  A    between atoms: _207  and  _210
REMARK   81  A    between atoms: _210  and  _211
REMARK   82  A    between atoms: _216  and  _217
REMARK   83  A    between atoms: _219  and  _221
REMARK   84  A    between atoms: _221  and  _222
REMARK   85  A    between atoms: _221  and  _224
REMARK   86  A    between atoms: _224  and  _225
REMARK   87  A    between atoms: _230  and  _232
REMARK   88  A    between atoms: _232  and  _233
REMARK   89  A    between atoms: _232  and  _235
REMARK   90  A    between atoms: _235  and  _236
REMARK   91  A    between atoms: _241  and  _243
REMARK   92  A    between atoms: _243  and  _244
REMARK   93  A    between atoms: _243  and  _246
REMARK   94  A    between atoms: _246  and  _247
REMARK   95  A    between atoms: _247  and  _248
REMARK   96  A    between atoms: _250  and  _252
REMARK   97  A    between atoms: _252  and  _253
REMARK   98  A    between atoms: _252  and  _255
REMARK   99  A    between atoms: _255  and  _256
REMARK  100  A    between atoms: _261  and  _262
REMARK  101  A    between atoms: _264  and  _266
REMARK  102  A    between atoms: _266  and  _267
REMARK  103  A    between atoms: _266  and  _269
REMARK  104  A    between atoms: _269  and  _270
REMARK  105  A    between atoms: _273  and  _275
REMARK  106  A    between atoms: _275  and  _276
REMARK  107  A    between atoms: _275  and  _278
REMARK  108  A    between atoms: _278  and  _279
REMARK  109  A    between atoms: _279  and  _496
REMARK  110  A    between atoms: _280  and  _282
REMARK  111  A    between atoms: _282  and  _283
REMARK  112  A    between atoms: _282  and  _285
REMARK  113  A    between atoms: _285  and  _286
REMARK  114  A    between atoms: _289  and  _291
REMARK  115  A    between atoms: _291  and  _292
REMARK  116  A    between atoms: _291  and  _294
REMARK  117  A    between atoms: _294  and  _295
REMARK  118  A    between atoms: _300  and  _301
REMARK  119  A    between atoms: _303  and  _305
REMARK  120  A    between atoms: _305  and  _306
REMARK  121  A    between atoms: _305  and  _308
REMARK  122  A    between atoms: _308  and  _309
REMARK  123  A    between atoms: _314  and  _315
REMARK  124  A    between atoms: _317  and  _319
REMARK  125  A    between atoms: _319  and  _320
REMARK  126  A    between atoms: _319  and  _322
REMARK  127  A    between atoms: _322  and  _323
REMARK  128  A    between atoms: _323  and  _324
REMARK  129  A    between atoms: _327  and  _329
REMARK  130  A    between atoms: _329  and  _330
REMARK  131  A    between atoms: _329  and  _332
REMARK  132  A    between atoms: _332  and  _333
REMARK  133  A    between atoms: _338  and  _339
REMARK  134  A    between atoms: _341  and  _343
REMARK  135  A    between atoms: _343  and  _344
REMARK  136  A    between atoms: _343  and  _346
REMARK  137  A    between atoms: _346  and  _347
REMARK  138  A    between atoms: _352  and  _354
REMARK  139  A    between atoms: _354  and  _355
REMARK  140  A    between atoms: _354  and  _357
REMARK  141  A    between atoms: _357  and  _358
REMARK  142  A    between atoms: _361  and  _363
REMARK  143  A    between atoms: _363  and  _364
REMARK  144  A    between atoms: _363  and  _366
REMARK  145  A    between atoms: _366  and  _367
REMARK  146  A    between atoms: _372  and  _374
REMARK  147  A    between atoms: _374  and  _375
REMARK  148  A    between atoms: _374  and  _377
REMARK  149  A    between atoms: _377  and  _378
REMARK  150  A    between atoms: _388  and  _390
REMARK  151  A    between atoms: _390  and  _391
REMARK  152  A    between atoms: _390  and  _393
REMARK  153  A    between atoms: _393  and  _394
REMARK  154  A    between atoms: _400  and  _402
REMARK  155  A    between atoms: _402  and  _403
REMARK  156  A    between atoms: _402  and  _405
REMARK  157  A    between atoms: _405  and  _406
REMARK  158  A    between atoms: _409  and  _411
REMARK  159  A    between atoms: _411  and  _412
REMARK  160  A    between atoms: _411  and  _414
REMARK  161  A    between atoms: _414  and  _415
REMARK  162  A    between atoms: _418  and  _420
REMARK  163  A    between atoms: _420  and  _421
REMARK  164  A    between atoms: _420  and  _423
REMARK  165  A    between atoms: _423  and  _424
REMARK  166  A    between atoms: _424  and  _425
REMARK  167  A    between atoms: _425  and  _426
REMARK  168  A    between atoms: _435  and  _437
REMARK  169  A    between atoms: _437  and  _438
REMARK  170  A    between atoms: _437  and  _440
REMARK  171  A    between atoms: _440  and  _441
REMARK  172  A    between atoms: _446  and  _448
REMARK  173  A    between atoms: _448  and  _449
REMARK  174  A    between atoms: _448  and  _451
REMARK  175  A    between atoms: _451  and  _452
REMARK  176  A    between atoms: _452  and  _453
REMARK  177  A    between atoms: _453  and  _454
REMARK  178  A    between atoms: _463  and  _465
REMARK  179  A    between atoms: _465  and  _466
REMARK  180  A    between atoms: _469  and  _471
REMARK  181  A    between atoms: _471  and  _472
REMARK  182  A    between atoms: _474  and  _476
REMARK  183  A    between atoms: _476  and  _477
REMARK  184  A    between atoms: _476  and  _479
REMARK  185  A    between atoms: _479  and  _480
REMARK  186  A    between atoms: _490  and  _492
REMARK  187  A    between atoms: _492  and  _493
REMARK  188  A    between atoms: _492  and  _495
REMARK  189  A    between atoms: _495  and  _496
REMARK  190  A    between atoms: _497  and  _499
REMARK  191  A    between atoms: _499  and  _500
REMARK  192  A    between atoms: _503  and  _505
REMARK  193  A    between atoms: _505  and  _506
REMARK  194  A    between atoms: _505  and  _508
REMARK  195  A    between atoms: _508  and  _509
REMARK  196  A    between atoms: _512  and  _514
REMARK  197  A    between atoms: _514  and  _515
REMARK  198  A    between atoms: _514  and  _517
REMARK  199  A    between atoms: _517  and  _518
REMARK  200  A    between atoms: _523  and  _524
REMARK  201  A    between atoms: _526  and  _528
REMARK  202  A    between atoms: _528  and  _529
REMARK  203  A    between atoms: _528  and  _531
REMARK  204  A    between atoms: _531  and  _532
REMARK  205  A    between atoms: _534  and  _536
REMARK  206  A    between atoms: _536  and  _537
REMARK  207  A    between atoms: _536  and  _539
REMARK  208  A    between atoms: _539  and  _540
REMARK  209  A    between atoms: _546  and  _548
REMARK  210  A    between atoms: _548  and  _549
REMARK  211  A    between atoms: _548  and  _551
REMARK  212  A    between atoms: _551  and  _552
REMARK  213  A    between atoms: _555  and  _557
REMARK  214  A    between atoms: _557  and  _558
REMARK  215  A    between atoms: _557  and  _560
REMARK  216  A    between atoms: _560  and  _561
REMARK  217  A    between atoms: _563  and  _565
REMARK  218  A    between atoms: _565  and  _566
REMARK  219  A    between atoms: _565  and  _568
REMARK  220  A    between atoms: _568  and  _569
REMARK  221  A    between atoms: _574  and  _576
REMARK  222  A    between atoms: _576  and  _577
REMARK  223  A    between atoms: _576  and  _579
REMARK  224  A    between atoms: _579  and  _580
REMARK  225  A    between atoms: _585  and  _587
REMARK  226  A    between atoms: _587  and  _588
REMARK  227  A    between atoms: _587  and  _590
REMARK  228  A    between atoms: _590  and  _591
REMARK  229  A    between atoms: _594  and  _596
REMARK  230  A    between atoms: _596  and  _597
REMARK  231  A    between atoms: _600  and  _602
REMARK  232  A    between atoms: _602  and  _603
REMARK  233  A    between atoms: _602  and  _605
REMARK  234  A    between atoms: _605  and  _606
REMARK  235  A    between atoms: _611  and  _612
REMARK  236  A    between atoms: _614  and  _616
REMARK  237  A    between atoms: _616  and  _617
REMARK  238  A    between atoms: _616  and  _619
REMARK  239  A    between atoms: _619  and  _620
REMARK  240  A    between atoms: _625  and  _626
REMARK  241  A    between atoms: _628  and  _630
REMARK  242  A    between atoms: _630  and  _631
REMARK  243  A    between atoms: _630  and  _633
REMARK  244  A    between atoms: _636  and  _638
REMARK  245  A    between atoms: _638  and  _639
REMARK  246  A    between atoms: _638  and  _641
REMARK  247  A    between atoms: _641  and  _642
REMARK  248  A    between atoms: _647  and  _649
REMARK  249  A    between atoms: _649  and  _650
REMARK  250  A    between atoms: _653  and  _655
REMARK  251  A    between atoms: _655  and  _656
REMARK  252  A    between atoms: _655  and  _658
REMARK  253  A    between atoms: _658  and  _659
REMARK  254  A    between atoms: _659  and  _660
REMARK  255  A    between atoms: _660  and  _661
REMARK  256  A    between atoms: _670  and  _672
REMARK  257  A    between atoms: _672  and  _673
REMARK  258  A    between atoms: _672  and  _675
REMARK  259  A    between atoms: _675  and  _676
REMARK  260  A    between atoms: _679  and  _681
REMARK  261  A    between atoms: _681  and  _682
REMARK  262  A    between atoms: _681  and  _684
REMARK  263  A    between atoms: _684  and  _685
REMARK  264  A    between atoms: _688  and  _690
REMARK  265  A    between atoms: _690  and  _691
REMARK  266  A    between atoms: _690  and  _693
REMARK  267  A    between atoms: _693  and  _694
REMARK  268  A    between atoms: _724  and  _725
REMARK  269  A    between atoms: _725  and  _731
REMARK                            x       y       z     vdW  Elec       q    Type
REMARK                         _______ _______ _______ _____ _____    ______ ____
ROOT
ATOM      1  O   HOH     1      -7.248  23.766  12.178  0.00  0.00    +0.000 OA
ENDROOT
TORSDOF 0
REMARK  Name = ../refined-set-2016/1b3h/1b3h_pocket.pdb
REMARK  269 active torsions:
REMARK  status: ('A' for Active; 'I' for Inactive)
REMARK    1  A    between atoms: _1  and  _3
REMARK    2  A    between atoms: _3  and  _4
REMARK    3  A    between atoms: _3  and  _6
REMARK    4  A    between atoms: _6  and  _7
REMARK    5  A    between atoms: _12  and  _14
REMARK    6  A    between atoms: _14  and  _15
REMARK    7  A    between atoms: _17  and  _19
REMARK    8  A    between atoms: _19  and  _20
REMARK    9  A    between atoms: _19  and  _22
REMARK   10  A    between atoms: _22  and  _23
REMARK   11  A    between atoms: _25  and  _27
REMARK   12  A    between atoms: _27  and  _28
REMARK   13  A    between atoms: _27  and  _30
REMARK   14  A    between atoms: _30  and  _31
REMARK   15  A    between atoms: _31  and  _32
REMARK   16  A    between atoms: _37  and  _39
REMARK   17  A    between atoms: _39  and  _40
REMARK   18  A    between atoms: _39  and  _42
REMARK   19  A    between atoms: _42  and  _43
REMARK   20  A    between atoms: _46  and  _48
REMARK   21  A    between atoms: _48  and  _49
REMARK   22  A    between atoms: _48  and  _51
REMARK   23  A    between atoms: _51  and  _52
REMARK   24  A    between atoms: _52  and  _53
REMARK   25  A    between atoms: _56  and  _58
REMARK   26  A    between atoms: _58  and  _59
REMARK   27  A    between atoms: _61  and  _63
REMARK   28  A    between atoms: _63  and  _64
REMARK   29  A    between atoms: _63  and  _66
REMARK   30  A    between atoms: _70  and  _71
REMARK   31  A    between atoms: _76  and  _78
REMARK   32  A    between atoms: _78  and  _79
REMARK   33  A    between atoms: _78  and  _81
REMARK   34  A    between atoms: _81  and  _82
REMARK   35  A    between atoms: _82  and  _83
REMARK   36  A    between atoms: _86  and  _88
REMARK   37  A    between atoms: _88  and  _89
REMARK   38  A    between atoms: _88  and  _91
REMARK   39  A    between atoms: _91  and  _92
REMARK   40  A    between atoms: _94  and  _96
REMARK   41  A    between atoms: _96  and  _97
REMARK   42  A    between atoms: _96  and  _99
REMARK   43  A    between atoms: _99  and  _100
REMARK   44  A    between atoms: _105  and  _107
REMARK   45  A    between atoms: _107  and  _108
REMARK   46  A    between atoms: _107  and  _110
REMARK   47  A    between atoms: _110  and  _111
REMARK   48  A    between atoms: _111  and  _112
REMARK   49  A    between atoms: _112  and  _113
REMARK   50  A    between atoms: _123  and  _124
REMARK   51  A    between atoms: _129  and  _131
REMARK   52  A    between atoms: _131  and  _132
REMARK   53  A    between atoms: _131  and  _134
REMARK   54  A    between atoms: _134  and  _135
REMARK   55  A    between atoms: _140  and  _141
REMARK   56  A    between atoms: _143  and  _145
REMARK   57  A    between atoms: _145  and  _146
REMARK   58  A    between atoms: _145  and  _148
REMARK   59  A    between atoms: _148  and  _149
REMARK   60  A    between atoms: _154  and  _155
REMARK   61  A    between atoms: _157  and  _159
REMARK   62  A    between atoms: _159  and  _160
REMARK   63  A    between atoms: _159  and  _162
REMARK   64  A    between atoms: _162  and  _163
REMARK   65  A    between atoms: _168  and  _169
REMARK   66  A    between atoms: _171  and  _173
REMARK   67  A    between atoms: _173  and  _174
REMARK   68  A    between atoms: _173  and  _176
REMARK   69  A    between atoms: _179  and  _181
REMARK   70  A    between atoms: _181  and  _182
REMARK   71  A    between atoms: _181  and  _184
REMARK   72  A    between atoms: _184  and  _185
REMARK   73  A    between atoms: _191  and  _192
REMARK   74  A    between atoms: _197  and  _199
REMARK   75  A    between atoms: _199  and  _200
REMARK   76  A    between atoms: _199  and  _202
REMARK   77  A    between atoms: _202  and  _203
REMARK   78  A    between atoms: _205  and  _207
REMARK   79  A    between atoms: _207  and  _208
REMARK   80  A    between atoms: _207  and  _210
REMARK   81  A    between atoms: _210  and  _211
REMARK   82  A    between atoms: _216  and  _217
REMARK   83  A    between atoms: _219  and  _221
REMARK   84  A    between atoms: _221  and  _222
REMARK   85  A    between atoms: _221  and  _224
REMARK   86  A    between atoms: _224  and  _225
REMARK   87  A    between atoms: _230  and  _232
REMARK   88  A    between atoms: _232  and  _233
REMARK   89  A    between atoms: _232  and  _235
REMARK   90  A    between atoms: _235  and  _236
REMARK   91  A    between atoms: _241  and  _243
REMARK   92  A    between atoms: _243  and  _244
REMARK   93  A    between atoms: _243  and  _246
REMARK   94  A    between atoms: _246  and  _247
REMARK   95  A    between atoms: _247  and  _248
REMARK   96  A    between atoms: _250  and  _252
REMARK   97  A    between atoms: _252  and  _253
REMARK   98  A    between atoms: _252  and  _255
REMARK   99  A    between atoms: _255  and  _256
REMARK  100  A    between atoms: _261  and  _262
REMARK  101  A    between atoms: _264  and  _266
REMARK  102  A    between atoms: _266  and  _267
REMARK  103  A    between atoms: _266  and  _269
REMARK  104  A    between atoms: _269  and  _270
REMARK  105  A    between atoms: _273  and  _275
REMARK  106  A    between atoms: _275  and  _276
REMARK  107  A    between atoms: _275  and  _278
REMARK  108  A    between atoms: _278  and  _279
REMARK  109  A    between atoms: _279  and  _496
REMARK  110  A    between atoms: _280  and  _282
REMARK  111  A    between atoms: _282  and  _283
REMARK  112  A    between atoms: _282  and  _285
REMARK  113  A    between atoms: _285  and  _286
REMARK  114  A    between atoms: _289  and  _291
REMARK  115  A    between atoms: _291  and  _292
REMARK  116  A    between atoms: _291  and  _294
REMARK  117  A    between atoms: _294  and  _295
REMARK  118  A    between atoms: _300  and  _301
REMARK  119  A    between atoms: _303  and  _305
REMARK  120  A    between atoms: _305  and  _306
REMARK  121  A    between atoms: _305  and  _308
REMARK  122  A    between atoms: _308  and  _309
REMARK  123  A    between atoms: _314  and  _315
REMARK  124  A    between atoms: _317  and  _319
REMARK  125  A    between atoms: _319  and  _320
REMARK  126  A    between atoms: _319  and  _322
REMARK  127  A    between atoms: _322  and  _323
REMARK  128  A    between atoms: _323  and  _324
REMARK  129  A    between atoms: _327  and  _329
REMARK  130  A    between atoms: _329  and  _330
REMARK  131  A    between atoms: _329  and  _332
REMARK  132  A    between atoms: _332  and  _333
REMARK  133  A    between atoms: _338  and  _339
REMARK  134  A    between atoms: _341  and  _343
REMARK  135  A    between atoms: _343  and  _344
REMARK  136  A    between atoms: _343  and  _346
REMARK  137  A    between atoms: _346  and  _347
REMARK  138  A    between atoms: _352  and  _354
REMARK  139  A    between atoms: _354  and  _355
REMARK  140  A    between atoms: _354  and  _357
REMARK  141  A    between atoms: _357  and  _358
REMARK  142  A    between atoms: _361  and  _363
REMARK  143  A    between atoms: _363  and  _364
REMARK  144  A    between atoms: _363  and  _366
REMARK  145  A    between atoms: _366  and  _367
REMARK  146  A    between atoms: _372  and  _374
REMARK  147  A    between atoms: _374  and  _375
REMARK  148  A    between atoms: _374  and  _377
REMARK  149  A    between atoms: _377  and  _378
REMARK  150  A    between atoms: _388  and  _390
REMARK  151  A    between atoms: _390  and  _391
REMARK  152  A    between atoms: _390  and  _393
REMARK  153  A    between atoms: _393  and  _394
REMARK  154  A    between atoms: _400  and  _402
REMARK  155  A    between atoms: _402  and  _403
REMARK  156  A    between atoms: _402  and  _405
REMARK  157  A    between atoms: _405  and  _406
REMARK  158  A    between atoms: _409  and  _411
REMARK  159  A    between atoms: _411  and  _412
REMARK  160  A    between atoms: _411  and  _414
REMARK  161  A    between atoms: _414  and  _415
REMARK  162  A    between atoms: _418  and  _420
REMARK  163  A    between atoms: _420  and  _421
REMARK  164  A    between atoms: _420  and  _423
REMARK  165  A    between atoms: _423  and  _424
REMARK  166  A    between atoms: _424  and  _425
REMARK  167  A    between atoms: _425  and  _426
REMARK  168  A    between atoms: _435  and  _437
REMARK  169  A    between atoms: _437  and  _438
REMARK  170  A    between atoms: _437  and  _440
REMARK  171  A    between atoms: _440  and  _441
REMARK  172  A    between atoms: _446  and  _448
REMARK  173  A    between atoms: _448  and  _449
REMARK  174  A    between atoms: _448  and  _451
REMARK  175  A    between atoms: _451  and  _452
REMARK  176  A    between atoms: _452  and  _453
REMARK  177  A    between atoms: _453  and  _454
REMARK  178  A    between atoms: _463  and  _465
REMARK  179  A    between atoms: _465  and  _466
REMARK  180  A    between atoms: _469  and  _471
REMARK  181  A    between atoms: _471  and  _472
REMARK  182  A    between atoms: _474  and  _476
REMARK  183  A    between atoms: _476  and  _477
REMARK  184  A    between atoms: _476  and  _479
REMARK  185  A    between atoms: _479  and  _480
REMARK  186  A    between atoms: _490  and  _492
REMARK  187  A    between atoms: _492  and  _493
REMARK  188  A    between atoms: _492  and  _495
REMARK  189  A    between atoms: _495  and  _496
REMARK  190  A    between atoms: _497  and  _499
REMARK  191  A    between atoms: _499  and  _500
REMARK  192  A    between atoms: _503  and  _505
REMARK  193  A    between atoms: _505  and  _506
REMARK  194  A    between atoms: _505  and  _508
REMARK  195  A    between atoms: _508  and  _509
REMARK  196  A    between atoms: _512  and  _514
REMARK  197  A    between atoms: _514  and  _515
REMARK  198  A    between atoms: _514  and  _517
REMARK  199  A    between atoms: _517  and  _518
REMARK  200  A    between atoms: _523  and  _524
REMARK  201  A    between atoms: _526  and  _528
REMARK  202  A    between atoms: _528  and  _529
REMARK  203  A    between atoms: _528  and  _531
REMARK  204  A    between atoms: _531  and  _532
REMARK  205  A    between atoms: _534  and  _536
REMARK  206  A    between atoms: _536  and  _537
REMARK  207  A    between atoms: _536  and  _539
REMARK  208  A    between atoms: _539  and  _540
REMARK  209  A    between atoms: _546  and  _548
REMARK  210  A    between atoms: _548  and  _549
REMARK  211  A    between atoms: _548  and  _551
REMARK  212  A    between atoms: _551  and  _552
REMARK  213  A    between atoms: _555  and  _557
REMARK  214  A    between atoms: _557  and  _558
REMARK  215  A    between atoms: _557  and  _560
REMARK  216  A    between atoms: _560  and  _561
REMARK  217  A    between atoms: _563  and  _565
REMARK  218  A    between atoms: _565  and  _566
REMARK  219  A    between atoms: _565  and  _568
REMARK  220  A    between atoms: _568  and  _569
REMARK  221  A    between atoms: _574  and  _576
REMARK  222  A    between atoms: _576  and  _577
REMARK  223  A    between atoms: _576  and  _579
REMARK  224  A    between atoms: _579  and  _580
REMARK  225  A    between atoms: _585  and  _587
REMARK  226  A    between atoms: _587  and  _588
REMARK  227  A    between atoms: _587  and  _590
REMARK  228  A    between atoms: _590  and  _591
REMARK  229  A    between atoms: _594  and  _596
REMARK  230  A    between atoms: _596  and  _597
REMARK  231  A    between atoms: _600  and  _602
REMARK  232  A    between atoms: _602  and  _603
REMARK  233  A    between atoms: _602  and  _605
REMARK  234  A    between atoms: _605  and  _606
REMARK  235  A    between atoms: _611  and  _612
REMARK  236  A    between atoms: _614  and  _616
REMARK  237  A    between atoms: _616  and  _617
REMARK  238  A    between atoms: _616  and  _619
REMARK  239  A    between atoms: _619  and  _620
REMARK  240  A    between atoms: _625  and  _626
REMARK  241  A    between atoms: _628  and  _630
REMARK  242  A    between atoms: _630  and  _631
REMARK  243  A    between atoms: _630  and  _633
REMARK  244  A    between atoms: _636  and  _638
REMARK  245  A    between atoms: _638  and  _639
REMARK  246  A    between atoms: _638  and  _641
REMARK  247  A    between atoms: _641  and  _642
REMARK  248  A    between atoms: _647  and  _649
REMARK  249  A    between atoms: _649  and  _650
REMARK  250  A    between atoms: _653  and  _655
REMARK  251  A    between atoms: _655  and  _656
REMARK  252  A    between atoms: _655  and  _658
REMARK  253  A    between atoms: _658  and  _659
REMARK  254  A    between atoms: _659  and  _660
REMARK  255  A    between atoms: _660  and  _661
REMARK  256  A    between atoms: _670  and  _672
REMARK  257  A    between atoms: _672  and  _673
REMARK  258  A    between atoms: _672  and  _675
REMARK  259  A    between atoms: _675  and  _676
REMARK  260  A    between atoms: _679  and  _681
REMARK  261  A    between atoms: _681  and  _682
REMARK  262  A    between atoms: _681  and  _684
REMARK  263  A    between atoms: _684  and  _685
REMARK  264  A    between atoms: _688  and  _690
REMARK  265  A    between atoms: _690  and  _691
REMARK  266  A    between atoms: _690  and  _693
REMARK  267  A    between atoms: _693  and  _694
REMARK  268  A    between atoms: _724  and  _725
REMARK  269  A    between atoms: _725  and  _731
REMARK                            x       y       z     vdW  Elec       q    Type
REMARK                         _______ _______ _______ _____ _____    ______ ____
ROOT
ATOM      1  O   HOH     1      -8.120  13.762  16.444  0.00  0.00    +0.000 OA
ENDROOT
TORSDOF 0
REMARK  Name = ../refined-set-2016/1b3h/1b3h_pocket.pdb
REMARK  269 active torsions:
REMARK  status: ('A' for Active; 'I' for Inactive)
REMARK    1  A    between atoms: _1  and  _3
REMARK    2  A    between atoms: _3  and  _4
REMARK    3  A    between atoms: _3  and  _6
REMARK    4  A    between atoms: _6  and  _7
REMARK    5  A    between atoms: _12  and  _14
REMARK    6  A    between atoms: _14  and  _15
REMARK    7  A    between atoms: _17  and  _19
REMARK    8  A    between atoms: _19  and  _20
REMARK    9  A    between atoms: _19  and  _22
REMARK   10  A    between atoms: _22  and  _23
REMARK   11  A    between atoms: _25  and  _27
REMARK   12  A    between atoms: _27  and  _28
REMARK   13  A    between atoms: _27  and  _30
REMARK   14  A    between atoms: _30  and  _31
REMARK   15  A    between atoms: _31  and  _32
REMARK   16  A    between atoms: _37  and  _39
REMARK   17  A    between atoms: _39  and  _40
REMARK   18  A    between atoms: _39  and  _42
REMARK   19  A    between atoms: _42  and  _43
REMARK   20  A    between atoms: _46  and  _48
REMARK   21  A    between atoms: _48  and  _49
REMARK   22  A    between atoms: _48  and  _51
REMARK   23  A    between atoms: _51  and  _52
REMARK   24  A    between atoms: _52  and  _53
REMARK   25  A    between atoms: _56  and  _58
REMARK   26  A    between atoms: _58  and  _59
REMARK   27  A    between atoms: _61  and  _63
REMARK   28  A    between atoms: _63  and  _64
REMARK   29  A    between atoms: _63  and  _66
REMARK   30  A    between atoms: _70  and  _71
REMARK   31  A    between atoms: _76  and  _78
REMARK   32  A    between atoms: _78  and  _79
REMARK   33  A    between atoms: _78  and  _81
REMARK   34  A    between atoms: _81  and  _82
REMARK   35  A    between atoms: _82  and  _83
REMARK   36  A    between atoms: _86  and  _88
REMARK   37  A    between atoms: _88  and  _89
REMARK   38  A    between atoms: _88  and  _91
REMARK   39  A    between atoms: _91  and  _92
REMARK   40  A    between atoms: _94  and  _96
REMARK   41  A    between atoms: _96  and  _97
REMARK   42  A    between atoms: _96  and  _99
REMARK   43  A    between atoms: _99  and  _100
REMARK   44  A    between atoms: _105  and  _107
REMARK   45  A    between atoms: _107  and  _108
REMARK   46  A    between atoms: _107  and  _110
REMARK   47  A    between atoms: _110  and  _111
REMARK   48  A    between atoms: _111  and  _112
REMARK   49  A    between atoms: _112  and  _113
REMARK   50  A    between atoms: _123  and  _124
REMARK   51  A    between atoms: _129  and  _131
REMARK   52  A    between atoms: _131  and  _132
REMARK   53  A    between atoms: _131  and  _134
REMARK   54  A    between atoms: _134  and  _135
REMARK   55  A    between atoms: _140  and  _141
REMARK   56  A    between atoms: _143  and  _145
REMARK   57  A    between atoms: _145  and  _146
REMARK   58  A    between atoms: _145  and  _148
REMARK   59  A    between atoms: _148  and  _149
REMARK   60  A    between atoms: _154  and  _155
REMARK   61  A    between atoms: _157  and  _159
REMARK   62  A    between atoms: _159  and  _160
REMARK   63  A    between atoms: _159  and  _162
REMARK   64  A    between atoms: _162  and  _163
REMARK   65  A    between atoms: _168  and  _169
REMARK   66  A    between atoms: _171  and  _173
REMARK   67  A    between atoms: _173  and  _174
REMARK   68  A    between atoms: _173  and  _176
REMARK   69  A    between atoms: _179  and  _181
REMARK   70  A    between atoms: _181  and  _182
REMARK   71  A    between atoms: _181  and  _184
REMARK   72  A    between atoms: _184  and  _185
REMARK   73  A    between atoms: _191  and  _192
REMARK   74  A    between atoms: _197  and  _199
REMARK   75  A    between atoms: _199  and  _200
REMARK   76  A    between atoms: _199  and  _202
REMARK   77  A    between atoms: _202  and  _203
REMARK   78  A    between atoms: _205  and  _207
REMARK   79  A    between atoms: _207  and  _208
REMARK   80  A    between atoms: _207  and  _210
REMARK   81  A    between atoms: _210  and  _211
REMARK   82  A    between atoms: _216  and  _217
REMARK   83  A    between atoms: _219  and  _221
REMARK   84  A    between atoms: _221  and  _222
REMARK   85  A    between atoms: _221  and  _224
REMARK   86  A    between atoms: _224  and  _225
REMARK   87  A    between atoms: _230  and  _232
REMARK   88  A    between atoms: _232  and  _233
REMARK   89  A    between atoms: _232  and  _235
REMARK   90  A    between atoms: _235  and  _236
REMARK   91  A    between atoms: _241  and  _243
REMARK   92  A    between atoms: _243  and  _244
REMARK   93  A    between atoms: _243  and  _246
REMARK   94  A    between atoms: _246  and  _247
REMARK   95  A    between atoms: _247  and  _248
REMARK   96  A    between atoms: _250  and  _252
REMARK   97  A    between atoms: _252  and  _253
REMARK   98  A    between atoms: _252  and  _255
REMARK   99  A    between atoms: _255  and  _256
REMARK  100  A    between atoms: _261  and  _262
REMARK  101  A    between atoms: _264  and  _266
REMARK  102  A    between atoms: _266  and  _267
REMARK  103  A    between atoms: _266  and  _269
REMARK  104  A    between atoms: _269  and  _270
REMARK  105  A    between atoms: _273  and  _275
REMARK  106  A    between atoms: _275  and  _276
REMARK  107  A    between atoms: _275  and  _278
REMARK  108  A    between atoms: _278  and  _279
REMARK  109  A    between atoms: _279  and  _496
REMARK  110  A    between atoms: _280  and  _282
REMARK  111  A    between atoms: _282  and  _283
REMARK  112  A    between atoms: _282  and  _285
REMARK  113  A    between atoms: _285  and  _286
REMARK  114  A    between atoms: _289  and  _291
REMARK  115  A    between atoms: _291  and  _292
REMARK  116  A    between atoms: _291  and  _294
REMARK  117  A    between atoms: _294  and  _295
REMARK  118  A    between atoms: _300  and  _301
REMARK  119  A    between atoms: _303  and  _305
REMARK  120  A    between atoms: _305  and  _306
REMARK  121  A    between atoms: _305  and  _308
REMARK  122  A    between atoms: _308  and  _309
REMARK  123  A    between atoms: _314  and  _315
REMARK  124  A    between atoms: _317  and  _319
REMARK  125  A    between atoms: _319  and  _320
REMARK  126  A    between atoms: _319  and  _322
REMARK  127  A    between atoms: _322  and  _323
REMARK  128  A    between atoms: _323  and  _324
REMARK  129  A    between atoms: _327  and  _329
REMARK  130  A    between atoms: _329  and  _330
REMARK  131  A    between atoms: _329  and  _332
REMARK  132  A    between atoms: _332  and  _333
REMARK  133  A    between atoms: _338  and  _339
REMARK  134  A    between atoms: _341  and  _343
REMARK  135  A    between atoms: _343  and  _344
REMARK  136  A    between atoms: _343  and  _346
REMARK  137  A    between atoms: _346  and  _347
REMARK  138  A    between atoms: _352  and  _354
REMARK  139  A    between atoms: _354  and  _355
REMARK  140  A    between atoms: _354  and  _357
REMARK  141  A    between atoms: _357  and  _358
REMARK  142  A    between atoms: _361  and  _363
REMARK  143  A    between atoms: _363  and  _364
REMARK  144  A    between atoms: _363  and  _366
REMARK  145  A    between atoms: _366  and  _367
REMARK  146  A    between atoms: _372  and  _374
REMARK  147  A    between atoms: _374  and  _375
REMARK  148  A    between atoms: _374  and  _377
REMARK  149  A    between atoms: _377  and  _378
REMARK  150  A    between atoms: _388  and  _390
REMARK  151  A    between atoms: _390  and  _391
REMARK  152  A    between atoms: _390  and  _393
REMARK  153  A    between atoms: _393  and  _394
REMARK  154  A    between atoms: _400  and  _402
REMARK  155  A    between atoms: _402  and  _403
REMARK  156  A    between atoms: _402  and  _405
REMARK  157  A    between atoms: _405  and  _406
REMARK  158  A    between atoms: _409  and  _411
REMARK  159  A    between atoms: _411  and  _412
REMARK  160  A    between atoms: _411  and  _414
REMARK  161  A    between atoms: _414  and  _415
REMARK  162  A    between atoms: _418  and  _420
REMARK  163  A    between atoms: _420  and  _421
REMARK  164  A    between atoms: _420  and  _423
REMARK  165  A    between atoms: _423  and  _424
REMARK  166  A    between atoms: _424  and  _425
REMARK  167  A    between atoms: _425  and  _426
REMARK  168  A    between atoms: _435  and  _437
REMARK  169  A    between atoms: _437  and  _438
REMARK  170  A    between atoms: _437  and  _440
REMARK  171  A    between atoms: _440  and  _441
REMARK  172  A    between atoms: _446  and  _448
REMARK  173  A    between atoms: _448  and  _449
REMARK  174  A    between atoms: _448  and  _451
REMARK  175  A    between atoms: _451  and  _452
REMARK  176  A    between atoms: _452  and  _453
REMARK  177  A    between atoms: _453  and  _454
REMARK  178  A    between atoms: _463  and  _465
REMARK  179  A    between atoms: _465  and  _466
REMARK  180  A    between atoms: _469  and  _471
REMARK  181  A    between atoms: _471  and  _472
REMARK  182  A    between atoms: _474  and  _476
REMARK  183  A    between atoms: _476  and  _477
REMARK  184  A    between atoms: _476  and  _479
REMARK  185  A    between atoms: _479  and  _480
REMARK  186  A    between atoms: _490  and  _492
REMARK  187  A    between atoms: _492  and  _493
REMARK  188  A    between atoms: _492  and  _495
REMARK  189  A    between atoms: _495  and  _496
REMARK  190  A    between atoms: _497  and  _499
REMARK  191  A    between atoms: _499  and  _500
REMARK  192  A    between atoms: _503  and  _505
REMARK  193  A    between atoms: _505  and  _506
REMARK  194  A    between atoms: _505  and  _508
REMARK  195  A    between atoms: _508  and  _509
REMARK  196  A    between atoms: _512  and  _514
REMARK  197  A    between atoms: _514  and  _515
REMARK  198  A    between atoms: _514  and  _517
REMARK  199  A    between atoms: _517  and  _518
REMARK  200  A    between atoms: _523  and  _524
REMARK  201  A    between atoms: _526  and  _528
REMARK  202  A    between atoms: _528  and  _529
REMARK  203  A    between atoms: _528  and  _531
REMARK  204  A    between atoms: _531  and  _532
REMARK  205  A    between atoms: _534  and  _536
REMARK  206  A    between atoms: _536  and  _537
REMARK  207  A    between atoms: _536  and  _539
REMARK  208  A    between atoms: _539  and  _540
REMARK  209  A    between atoms: _546  and  _548
REMARK  210  A    between atoms: _548  and  _549
REMARK  211  A    between atoms: _548  and  _551
REMARK  212  A    between atoms: _551  and  _552
REMARK  213  A    between atoms: _555  and  _557
REMARK  214  A    between atoms: _557  and  _558
REMARK  215  A    between atoms: _557  and  _560
REMARK  216  A    between atoms: _560  and  _561
REMARK  217  A    between atoms: _563  and  _565
REMARK  218  A    between atoms: _565  and  _566
REMARK  219  A    between atoms: _565  and  _568
REMARK  220  A    between atoms: _568  and  _569
REMARK  221  A    between atoms: _574  and  _576
REMARK  222  A    between atoms: _576  and  _577
REMARK  223  A    between atoms: _576  and  _579
REMARK  224  A    between atoms: _579  and  _580
REMARK  225  A    between atoms: _585  and  _587
REMARK  226  A    between atoms: _587  and  _588
REMARK  227  A    between atoms: _587  and  _590
REMARK  228  A    between atoms: _590  and  _591
REMARK  229  A    between atoms: _594  and  _596
REMARK  230  A    between atoms: _596  and  _597
REMARK  231  A    between atoms: _600  and  _602
REMARK  232  A    between atoms: _602  and  _603
REMARK  233  A    between atoms: _602  and  _605
REMARK  234  A    between atoms: _605  and  _606
REMARK  235  A    between atoms: _611  and  _612
REMARK  236  A    between atoms: _614  and  _616
REMARK  237  A    between atoms: _616  and  _617
REMARK  238  A    between atoms: _616  and  _619
REMARK  239  A    between atoms: _619  and  _620
REMARK  240  A    between atoms: _625  and  _626
REMARK  241  A    between atoms: _628  and  _630
REMARK  242  A    between atoms: _630  and  _631
REMARK  243  A    between atoms: _630  and  _633
REMARK  244  A    between atoms: _636  and  _638
REMARK  245  A    between atoms: _638  and  _639
REMARK  246  A    between atoms: _638  and  _641
REMARK  247  A    between atoms: _641  and  _642
REMARK  248  A    between atoms: _647  and  _649
REMARK  249  A    between atoms: _649  and  _650
REMARK  250  A    between atoms: _653  and  _655
REMARK  251  A    between atoms: _655  and  _656
REMARK  252  A    between atoms: _655  and  _658
REMARK  253  A    between atoms: _658  and  _659
REMARK  254  A    between atoms: _659  and  _660
REMARK  255  A    between atoms: _660  and  _661
REMARK  256  A    between atoms: _670  and  _672
REMARK  257  A    between atoms: _672  and  _673
REMARK  258  A    between atoms: _672  and  _675
REMARK  259  A    between atoms: _675  and  _676
REMARK  260  A    between atoms: _679  and  _681
REMARK  261  A    between atoms: _681  and  _682
REMARK  262  A    between atoms: _681  and  _684
REMARK  263  A    between atoms: _684  and  _685
REMARK  264  A    between atoms: _688  and  _690
REMARK  265  A    between atoms: _690  and  _691
REMARK  266  A    between atoms: _690  and  _693
REMARK  267  A    between atoms: _693  and  _694
REMARK  268  A    between atoms: _724  and  _725
REMARK  269  A    between atoms: _725  and  _731
REMARK                            x       y       z     vdW  Elec       q    Type
REMARK                         _______ _______ _______ _____ _____    ______ ____
ROOT
ATOM      1  O   HOH     1      13.959  26.312  19.498  0.00  0.00    +0.000 OA
ENDROOT
TORSDOF 0
REMARK  Name = ../refined-set-2016/1b3h/1b3h_pocket.pdb
REMARK  269 active torsions:
REMARK  status: ('A' for Active; 'I' for Inactive)
REMARK    1  A    between atoms: _1  and  _3
REMARK    2  A    between atoms: _3  and  _4
REMARK    3  A    between atoms: _3  and  _6
REMARK    4  A    between atoms: _6  and  _7
REMARK    5  A    between atoms: _12  and  _14
REMARK    6  A    between atoms: _14  and  _15
REMARK    7  A    between atoms: _17  and  _19
REMARK    8  A    between atoms: _19  and  _20
REMARK    9  A    between atoms: _19  and  _22
REMARK   10  A    between atoms: _22  and  _23
REMARK   11  A    between atoms: _25  and  _27
REMARK   12  A    between atoms: _27  and  _28
REMARK   13  A    between atoms: _27  and  _30
REMARK   14  A    between atoms: _30  and  _31
REMARK   15  A    between atoms: _31  and  _32
REMARK   16  A    between atoms: _37  and  _39
REMARK   17  A    between atoms: _39  and  _40
REMARK   18  A    between atoms: _39  and  _42
REMARK   19  A    between atoms: _42  and  _43
REMARK   20  A    between atoms: _46  and  _48
REMARK   21  A    between atoms: _48  and  _49
REMARK   22  A    between atoms: _48  and  _51
REMARK   23  A    between atoms: _51  and  _52
REMARK   24  A    between atoms: _52  and  _53
REMARK   25  A    between atoms: _56  and  _58
REMARK   26  A    between atoms: _58  and  _59
REMARK   27  A    between atoms: _61  and  _63
REMARK   28  A    between atoms: _63  and  _64
REMARK   29  A    between atoms: _63  and  _66
REMARK   30  A    between atoms: _70  and  _71
REMARK   31  A    between atoms: _76  and  _78
REMARK   32  A    between atoms: _78  and  _79
REMARK   33  A    between atoms: _78  and  _81
REMARK   34  A    between atoms: _81  and  _82
REMARK   35  A    between atoms: _82  and  _83
REMARK   36  A    between atoms: _86  and  _88
REMARK   37  A    between atoms: _88  and  _89
REMARK   38  A    between atoms: _88  and  _91
REMARK   39  A    between atoms: _91  and  _92
REMARK   40  A    between atoms: _94  and  _96
REMARK   41  A    between atoms: _96  and  _97
REMARK   42  A    between atoms: _96  and  _99
REMARK   43  A    between atoms: _99  and  _100
REMARK   44  A    between atoms: _105  and  _107
REMARK   45  A    between atoms: _107  and  _108
REMARK   46  A    between atoms: _107  and  _110
REMARK   47  A    between atoms: _110  and  _111
REMARK   48  A    between atoms: _111  and  _112
REMARK   49  A    between atoms: _112  and  _113
REMARK   50  A    between atoms: _123  and  _124
REMARK   51  A    between atoms: _129  and  _131
REMARK   52  A    between atoms: _131  and  _132
REMARK   53  A    between atoms: _131  and  _134
REMARK   54  A    between atoms: _134  and  _135
REMARK   55  A    between atoms: _140  and  _141
REMARK   56  A    between atoms: _143  and  _145
REMARK   57  A    between atoms: _145  and  _146
REMARK   58  A    between atoms: _145  and  _148
REMARK   59  A    between atoms: _148  and  _149
REMARK   60  A    between atoms: _154  and  _155
REMARK   61  A    between atoms: _157  and  _159
REMARK   62  A    between atoms: _159  and  _160
REMARK   63  A    between atoms: _159  and  _162
REMARK   64  A    between atoms: _162  and  _163
REMARK   65  A    between atoms: _168  and  _169
REMARK   66  A    between atoms: _171  and  _173
REMARK   67  A    between atoms: _173  and  _174
REMARK   68  A    between atoms: _173  and  _176
REMARK   69  A    between atoms: _179  and  _181
REMARK   70  A    between atoms: _181  and  _182
REMARK   71  A    between atoms: _181  and  _184
REMARK   72  A    between atoms: _184  and  _185
REMARK   73  A    between atoms: _191  and  _192
REMARK   74  A    between atoms: _197  and  _199
REMARK   75  A    between atoms: _199  and  _200
REMARK   76  A    between atoms: _199  and  _202
REMARK   77  A    between atoms: _202  and  _203
REMARK   78  A    between atoms: _205  and  _207
REMARK   79  A    between atoms: _207  and  _208
REMARK   80  A    between atoms: _207  and  _210
REMARK   81  A    between atoms: _210  and  _211
REMARK   82  A    between atoms: _216  and  _217
REMARK   83  A    between atoms: _219  and  _221
REMARK   84  A    between atoms: _221  and  _222
REMARK   85  A    between atoms: _221  and  _224
REMARK   86  A    between atoms: _224  and  _225
REMARK   87  A    between atoms: _230  and  _232
REMARK   88  A    between atoms: _232  and  _233
REMARK   89  A    between atoms: _232  and  _235
REMARK   90  A    between atoms: _235  and  _236
REMARK   91  A    between atoms: _241  and  _243
REMARK   92  A    between atoms: _243  and  _244
REMARK   93  A    between atoms: _243  and  _246
REMARK   94  A    between atoms: _246  and  _247
REMARK   95  A    between atoms: _247  and  _248
REMARK   96  A    between atoms: _250  and  _252
REMARK   97  A    between atoms: _252  and  _253
REMARK   98  A    between atoms: _252  and  _255
REMARK   99  A    between atoms: _255  and  _256
REMARK  100  A    between atoms: _261  and  _262
REMARK  101  A    between atoms: _264  and  _266
REMARK  102  A    between atoms: _266  and  _267
REMARK  103  A    between atoms: _266  and  _269
REMARK  104  A    between atoms: _269  and  _270
REMARK  105  A    between atoms: _273  and  _275
REMARK  106  A    between atoms: _275  and  _276
REMARK  107  A    between atoms: _275  and  _278
REMARK  108  A    between atoms: _278  and  _279
REMARK  109  A    between atoms: _279  and  _496
REMARK  110  A    between atoms: _280  and  _282
REMARK  111  A    between atoms: _282  and  _283
REMARK  112  A    between atoms: _282  and  _285
REMARK  113  A    between atoms: _285  and  _286
REMARK  114  A    between atoms: _289  and  _291
REMARK  115  A    between atoms: _291  and  _292
REMARK  116  A    between atoms: _291  and  _294
REMARK  117  A    between atoms: _294  and  _295
REMARK  118  A    between atoms: _300  and  _301
REMARK  119  A    between atoms: _303  and  _305
REMARK  120  A    between atoms: _305  and  _306
REMARK  121  A    between atoms: _305  and  _308
REMARK  122  A    between atoms: _308  and  _309
REMARK  123  A    between atoms: _314  and  _315
REMARK  124  A    between atoms: _317  and  _319
REMARK  125  A    between atoms: _319  and  _320
REMARK  126  A    between atoms: _319  and  _322
REMARK  127  A    between atoms: _322  and  _323
REMARK  128  A    between atoms: _323  and  _324
REMARK  129  A    between atoms: _327  and  _329
REMARK  130  A    between atoms: _329  and  _330
REMARK  131  A    between atoms: _329  and  _332
REMARK  132  A    between atoms: _332  and  _333
REMARK  133  A    between atoms: _338  and  _339
REMARK  134  A    between atoms: _341  and  _343
REMARK  135  A    between atoms: _343  and  _344
REMARK  136  A    between atoms: _343  and  _346
REMARK  137  A    between atoms: _346  and  _347
REMARK  138  A    between atoms: _352  and  _354
REMARK  139  A    between atoms: _354  and  _355
REMARK  140  A    between atoms: _354  and  _357
REMARK  141  A    between atoms: _357  and  _358
REMARK  142  A    between atoms: _361  and  _363
REMARK  143  A    between atoms: _363  and  _364
REMARK  144  A    between atoms: _363  and  _366
REMARK  145  A    between atoms: _366  and  _367
REMARK  146  A    between atoms: _372  and  _374
REMARK  147  A    between atoms: _374  and  _375
REMARK  148  A    between atoms: _374  and  _377
REMARK  149  A    between atoms: _377  and  _378
REMARK  150  A    between atoms: _388  and  _390
REMARK  151  A    between atoms: _390  and  _391
REMARK  152  A    between atoms: _390  and  _393
REMARK  153  A    between atoms: _393  and  _394
REMARK  154  A    between atoms: _400  and  _402
REMARK  155  A    between atoms: _402  and  _403
REMARK  156  A    between atoms: _402  and  _405
REMARK  157  A    between atoms: _405  and  _406
REMARK  158  A    between atoms: _409  and  _411
REMARK  159  A    between atoms: _411  and  _412
REMARK  160  A    between atoms: _411  and  _414
REMARK  161  A    between atoms: _414  and  _415
REMARK  162  A    between atoms: _418  and  _420
REMARK  163  A    between atoms: _420  and  _421
REMARK  164  A    between atoms: _420  and  _423
REMARK  165  A    between atoms: _423  and  _424
REMARK  166  A    between atoms: _424  and  _425
REMARK  167  A    between atoms: _425  and  _426
REMARK  168  A    between atoms: _435  and  _437
REMARK  169  A    between atoms: _437  and  _438
REMARK  170  A    between atoms: _437  and  _440
REMARK  171  A    between atoms: _440  and  _441
REMARK  172  A    between atoms: _446  and  _448
REMARK  173  A    between atoms: _448  and  _449
REMARK  174  A    between atoms: _448  and  _451
REMARK  175  A    between atoms: _451  and  _452
REMARK  176  A    between atoms: _452  and  _453
REMARK  177  A    between atoms: _453  and  _454
REMARK  178  A    between atoms: _463  and  _465
REMARK  179  A    between atoms: _465  and  _466
REMARK  180  A    between atoms: _469  and  _471
REMARK  181  A    between atoms: _471  and  _472
REMARK  182  A    between atoms: _474  and  _476
REMARK  183  A    between atoms: _476  and  _477
REMARK  184  A    between atoms: _476  and  _479
REMARK  185  A    between atoms: _479  and  _480
REMARK  186  A    between atoms: _490  and  _492
REMARK  187  A    between atoms: _492  and  _493
REMARK  188  A    between atoms: _492  and  _495
REMARK  189  A    between atoms: _495  and  _496
REMARK  190  A    between atoms: _497  and  _499
REMARK  191  A    between atoms: _499  and  _500
REMARK  192  A    between atoms: _503  and  _505
REMARK  193  A    between atoms: _505  and  _506
REMARK  194  A    between atoms: _505  and  _508
REMARK  195  A    between atoms: _508  and  _509
REMARK  196  A    between atoms: _512  and  _514
REMARK  197  A    between atoms: _514  and  _515
REMARK  198  A    between atoms: _514  and  _517
REMARK  199  A    between atoms: _517  and  _518
REMARK  200  A    between atoms: _523  and  _524
REMARK  201  A    between atoms: _526  and  _528
REMARK  202  A    between atoms: _528  and  _529
REMARK  203  A    between atoms: _528  and  _531
REMARK  204  A    between atoms: _531  and  _532
REMARK  205  A    between atoms: _534  and  _536
REMARK  206  A    between atoms: _536  and  _537
REMARK  207  A    between atoms: _536  and  _539
REMARK  208  A    between atoms: _539  and  _540
REMARK  209  A    between atoms: _546  and  _548
REMARK  210  A    between atoms: _548  and  _549
REMARK  211  A    between atoms: _548  and  _551
REMARK  212  A    between atoms: _551  and  _552
REMARK  213  A    between atoms: _555  and  _557
REMARK  214  A    between atoms: _557  and  _558
REMARK  215  A    between atoms: _557  and  _560
REMARK  216  A    between atoms: _560  and  _561
REMARK  217  A    between atoms: _563  and  _565
REMARK  218  A    between atoms: _565  and  _566
REMARK  219  A    between atoms: _565  and  _568
REMARK  220  A    between atoms: _568  and  _569
REMARK  221  A    between atoms: _574  and  _576
REMARK  222  A    between atoms: _576  and  _577
REMARK  223  A    between atoms: _576  and  _579
REMARK  224  A    between atoms: _579  and  _580
REMARK  225  A    between atoms: _585  and  _587
REMARK  226  A    between atoms: _587  and  _588
REMARK  227  A    between atoms: _587  and  _590
REMARK  228  A    between atoms: _590  and  _591
REMARK  229  A    between atoms: _594  and  _596
REMARK  230  A    between atoms: _596  and  _597
REMARK  231  A    between atoms: _600  and  _602
REMARK  232  A    between atoms: _602  and  _603
REMARK  233  A    between atoms: _602  and  _605
REMARK  234  A    between atoms: _605  and  _606
REMARK  235  A    between atoms: _611  and  _612
REMARK  236  A    between atoms: _614  and  _616
REMARK  237  A    between atoms: _616  and  _617
REMARK  238  A    between atoms: _616  and  _619
REMARK  239  A    between atoms: _619  and  _620
REMARK  240  A    between atoms: _625  and  _626
REMARK  241  A    between atoms: _628  and  _630
REMARK  242  A    between atoms: _630  and  _631
REMARK  243  A    between atoms: _630  and  _633
REMARK  244  A    between atoms: _636  and  _638
REMARK  245  A    between atoms: _638  and  _639
REMARK  246  A    between atoms: _638  and  _641
REMARK  247  A    between atoms: _641  and  _642
REMARK  248  A    between atoms: _647  and  _649
REMARK  249  A    between atoms: _649  and  _650
REMARK  250  A    between atoms: _653  and  _655
REMARK  251  A    between atoms: _655  and  _656
REMARK  252  A    between atoms: _655  and  _658
REMARK  253  A    between atoms: _658  and  _659
REMARK  254  A    between atoms: _659  and  _660
REMARK  255  A    between atoms: _660  and  _661
REMARK  256  A    between atoms: _670  and  _672
REMARK  257  A    between atoms: _672  and  _673
REMARK  258  A    between atoms: _672  and  _675
REMARK  259  A    between atoms: _675  and  _676
REMARK  260  A    between atoms: _679  and  _681
REMARK  261  A    between atoms: _681  and  _682
REMARK  262  A    between atoms: _681  and  _684
REMARK  263  A    between atoms: _684  and  _685
REMARK  264  A    between atoms: _688  and  _690
REMARK  265  A    between atoms: _690  and  _691
REMARK  266  A    between atoms: _690  and  _693
REMARK  267  A    between atoms: _693  and  _694
REMARK  268  A    between atoms: _724  and  _725
REMARK  269  A    between atoms: _725  and  _731
REMARK                            x       y       z     vdW  Elec       q    Type
REMARK                         _______ _______ _______ _____ _____    ______ ____
ROOT
ATOM      1  O   HOH     1       6.021   8.042   7.701  0.00  0.00    +0.000 OA
ENDROOT
TORSDOF 0
REMARK  Name = ../refined-set-2016/1b3h/1b3h_pocket.pdb
REMARK  269 active torsions:
REMARK  status: ('A' for Active; 'I' for Inactive)
REMARK    1  A    between atoms: _1  and  _3
REMARK    2  A    between atoms: _3  and  _4
REMARK    3  A    between atoms: _3  and  _6
REMARK    4  A    between atoms: _6  and  _7
REMARK    5  A    between atoms: _12  and  _14
REMARK    6  A    between atoms: _14  and  _15
REMARK    7  A    between atoms: _17  and  _19
REMARK    8  A    between atoms: _19  and  _20
REMARK    9  A    between atoms: _19  and  _22
REMARK   10  A    between atoms: _22  and  _23
REMARK   11  A    between atoms: _25  and  _27
REMARK   12  A    between atoms: _27  and  _28
REMARK   13  A    between atoms: _27  and  _30
REMARK   14  A    between atoms: _30  and  _31
REMARK   15  A    between atoms: _31  and  _32
REMARK   16  A    between atoms: _37  and  _39
REMARK   17  A    between atoms: _39  and  _40
REMARK   18  A    between atoms: _39  and  _42
REMARK   19  A    between atoms: _42  and  _43
REMARK   20  A    between atoms: _46  and  _48
REMARK   21  A    between atoms: _48  and  _49
REMARK   22  A    between atoms: _48  and  _51
REMARK   23  A    between atoms: _51  and  _52
REMARK   24  A    between atoms: _52  and  _53
REMARK   25  A    between atoms: _56  and  _58
REMARK   26  A    between atoms: _58  and  _59
REMARK   27  A    between atoms: _61  and  _63
REMARK   28  A    between atoms: _63  and  _64
REMARK   29  A    between atoms: _63  and  _66
REMARK   30  A    between atoms: _70  and  _71
REMARK   31  A    between atoms: _76  and  _78
REMARK   32  A    between atoms: _78  and  _79
REMARK   33  A    between atoms: _78  and  _81
REMARK   34  A    between atoms: _81  and  _82
REMARK   35  A    between atoms: _82  and  _83
REMARK   36  A    between atoms: _86  and  _88
REMARK   37  A    between atoms: _88  and  _89
REMARK   38  A    between atoms: _88  and  _91
REMARK   39  A    between atoms: _91  and  _92
REMARK   40  A    between atoms: _94  and  _96
REMARK   41  A    between atoms: _96  and  _97
REMARK   42  A    between atoms: _96  and  _99
REMARK   43  A    between atoms: _99  and  _100
REMARK   44  A    between atoms: _105  and  _107
REMARK   45  A    between atoms: _107  and  _108
REMARK   46  A    between atoms: _107  and  _110
REMARK   47  A    between atoms: _110  and  _111
REMARK   48  A    between atoms: _111  and  _112
REMARK   49  A    between atoms: _112  and  _113
REMARK   50  A    between atoms: _123  and  _124
REMARK   51  A    between atoms: _129  and  _131
REMARK   52  A    between atoms: _131  and  _132
REMARK   53  A    between atoms: _131  and  _134
REMARK   54  A    between atoms: _134  and  _135
REMARK   55  A    between atoms: _140  and  _141
REMARK   56  A    between atoms: _143  and  _145
REMARK   57  A    between atoms: _145  and  _146
REMARK   58  A    between atoms: _145  and  _148
REMARK   59  A    between atoms: _148  and  _149
REMARK   60  A    between atoms: _154  and  _155
REMARK   61  A    between atoms: _157  and  _159
REMARK   62  A    between atoms: _159  and  _160
REMARK   63  A    between atoms: _159  and  _162
REMARK   64  A    between atoms: _162  and  _163
REMARK   65  A    between atoms: _168  and  _169
REMARK   66  A    between atoms: _171  and  _173
REMARK   67  A    between atoms: _173  and  _174
REMARK   68  A    between atoms: _173  and  _176
REMARK   69  A    between atoms: _179  and  _181
REMARK   70  A    between atoms: _181  and  _182
REMARK   71  A    between atoms: _181  and  _184
REMARK   72  A    between atoms: _184  and  _185
REMARK   73  A    between atoms: _191  and  _192
REMARK   74  A    between atoms: _197  and  _199
REMARK   75  A    between atoms: _199  and  _200
REMARK   76  A    between atoms: _199  and  _202
REMARK   77  A    between atoms: _202  and  _203
REMARK   78  A    between atoms: _205  and  _207
REMARK   79  A    between atoms: _207  and  _208
REMARK   80  A    between atoms: _207  and  _210
REMARK   81  A    between atoms: _210  and  _211
REMARK   82  A    between atoms: _216  and  _217
REMARK   83  A    between atoms: _219  and  _221
REMARK   84  A    between atoms: _221  and  _222
REMARK   85  A    between atoms: _221  and  _224
REMARK   86  A    between atoms: _224  and  _225
REMARK   87  A    between atoms: _230  and  _232
REMARK   88  A    between atoms: _232  and  _233
REMARK   89  A    between atoms: _232  and  _235
REMARK   90  A    between atoms: _235  and  _236
REMARK   91  A    between atoms: _241  and  _243
REMARK   92  A    between atoms: _243  and  _244
REMARK   93  A    between atoms: _243  and  _246
REMARK   94  A    between atoms: _246  and  _247
REMARK   95  A    between atoms: _247  and  _248
REMARK   96  A    between atoms: _250  and  _252
REMARK   97  A    between atoms: _252  and  _253
REMARK   98  A    between atoms: _252  and  _255
REMARK   99  A    between atoms: _255  and  _256
REMARK  100  A    between atoms: _261  and  _262
REMARK  101  A    between atoms: _264  and  _266
REMARK  102  A    between atoms: _266  and  _267
REMARK  103  A    between atoms: _266  and  _269
REMARK  104  A    between atoms: _269  and  _270
REMARK  105  A    between atoms: _273  and  _275
REMARK  106  A    between atoms: _275  and  _276
REMARK  107  A    between atoms: _275  and  _278
REMARK  108  A    between atoms: _278  and  _279
REMARK  109  A    between atoms: _279  and  _496
REMARK  110  A    between atoms: _280  and  _282
REMARK  111  A    between atoms: _282  and  _283
REMARK  112  A    between atoms: _282  and  _285
REMARK  113  A    between atoms: _285  and  _286
REMARK  114  A    between atoms: _289  and  _291
REMARK  115  A    between atoms: _291  and  _292
REMARK  116  A    between atoms: _291  and  _294
REMARK  117  A    between atoms: _294  and  _295
REMARK  118  A    between atoms: _300  and  _301
REMARK  119  A    between atoms: _303  and  _305
REMARK  120  A    between atoms: _305  and  _306
REMARK  121  A    between atoms: _305  and  _308
REMARK  122  A    between atoms: _308  and  _309
REMARK  123  A    between atoms: _314  and  _315
REMARK  124  A    between atoms: _317  and  _319
REMARK  125  A    between atoms: _319  and  _320
REMARK  126  A    between atoms: _319  and  _322
REMARK  127  A    between atoms: _322  and  _323
REMARK  128  A    between atoms: _323  and  _324
REMARK  129  A    between atoms: _327  and  _329
REMARK  130  A    between atoms: _329  and  _330
REMARK  131  A    between atoms: _329  and  _332
REMARK  132  A    between atoms: _332  and  _333
REMARK  133  A    between atoms: _338  and  _339
REMARK  134  A    between atoms: _341  and  _343
REMARK  135  A    between atoms: _343  and  _344
REMARK  136  A    between atoms: _343  and  _346
REMARK  137  A    between atoms: _346  and  _347
REMARK  138  A    between atoms: _352  and  _354
REMARK  139  A    between atoms: _354  and  _355
REMARK  140  A    between atoms: _354  and  _357
REMARK  141  A    between atoms: _357  and  _358
REMARK  142  A    between atoms: _361  and  _363
REMARK  143  A    between atoms: _363  and  _364
REMARK  144  A    between atoms: _363  and  _366
REMARK  145  A    between atoms: _366  and  _367
REMARK  146  A    between atoms: _372  and  _374
REMARK  147  A    between atoms: _374  and  _375
REMARK  148  A    between atoms: _374  and  _377
REMARK  149  A    between atoms: _377  and  _378
REMARK  150  A    between atoms: _388  and  _390
REMARK  151  A    between atoms: _390  and  _391
REMARK  152  A    between atoms: _390  and  _393
REMARK  153  A    between atoms: _393  and  _394
REMARK  154  A    between atoms: _400  and  _402
REMARK  155  A    between atoms: _402  and  _403
REMARK  156  A    between atoms: _402  and  _405
REMARK  157  A    between atoms: _405  and  _406
REMARK  158  A    between atoms: _409  and  _411
REMARK  159  A    between atoms: _411  and  _412
REMARK  160  A    between atoms: _411  and  _414
REMARK  161  A    between atoms: _414  and  _415
REMARK  162  A    between atoms: _418  and  _420
REMARK  163  A    between atoms: _420  and  _421
REMARK  164  A    between atoms: _420  and  _423
REMARK  165  A    between atoms: _423  and  _424
REMARK  166  A    between atoms: _424  and  _425
REMARK  167  A    between atoms: _425  and  _426
REMARK  168  A    between atoms: _435  and  _437
REMARK  169  A    between atoms: _437  and  _438
REMARK  170  A    between atoms: _437  and  _440
REMARK  171  A    between atoms: _440  and  _441
REMARK  172  A    between atoms: _446  and  _448
REMARK  173  A    between atoms: _448  and  _449
REMARK  174  A    between atoms: _448  and  _451
REMARK  175  A    between atoms: _451  and  _452
REMARK  176  A    between atoms: _452  and  _453
REMARK  177  A    between atoms: _453  and  _454
REMARK  178  A    between atoms: _463  and  _465
REMARK  179  A    between atoms: _465  and  _466
REMARK  180  A    between atoms: _469  and  _471
REMARK  181  A    between atoms: _471  and  _472
REMARK  182  A    between atoms: _474  and  _476
REMARK  183  A    between atoms: _476  and  _477
REMARK  184  A    between atoms: _476  and  _479
REMARK  185  A    between atoms: _479  and  _480
REMARK  186  A    between atoms: _490  and  _492
REMARK  187  A    between atoms: _492  and  _493
REMARK  188  A    between atoms: _492  and  _495
REMARK  189  A    between atoms: _495  and  _496
REMARK  190  A    between atoms: _497  and  _499
REMARK  191  A    between atoms: _499  and  _500
REMARK  192  A    between atoms: _503  and  _505
REMARK  193  A    between atoms: _505  and  _506
REMARK  194  A    between atoms: _505  and  _508
REMARK  195  A    between atoms: _508  and  _509
REMARK  196  A    between atoms: _512  and  _514
REMARK  197  A    between atoms: _514  and  _515
REMARK  198  A    between atoms: _514  and  _517
REMARK  199  A    between atoms: _517  and  _518
REMARK  200  A    between atoms: _523  and  _524
REMARK  201  A    between atoms: _526  and  _528
REMARK  202  A    between atoms: _528  and  _529
REMARK  203  A    between atoms: _528  and  _531
REMARK  204  A    between atoms: _531  and  _532
REMARK  205  A    between atoms: _534  and  _536
REMARK  206  A    between atoms: _536  and  _537
REMARK  207  A    between atoms: _536  and  _539
REMARK  208  A    between atoms: _539  and  _540
REMARK  209  A    between atoms: _546  and  _548
REMARK  210  A    between atoms: _548  and  _549
REMARK  211  A    between atoms: _548  and  _551
REMARK  212  A    between atoms: _551  and  _552
REMARK  213  A    between atoms: _555  and  _557
REMARK  214  A    between atoms: _557  and  _558
REMARK  215  A    between atoms: _557  and  _560
REMARK  216  A    between atoms: _560  and  _561
REMARK  217  A    between atoms: _563  and  _565
REMARK  218  A    between atoms: _565  and  _566
REMARK  219  A    between atoms: _565  and  _568
REMARK  220  A    between atoms: _568  and  _569
REMARK  221  A    between atoms: _574  and  _576
REMARK  222  A    between atoms: _576  and  _577
REMARK  223  A    between atoms: _576  and  _579
REMARK  224  A    between atoms: _579  and  _580
REMARK  225  A    between atoms: _585  and  _587
REMARK  226  A    between atoms: _587  and  _588
REMARK  227  A    between atoms: _587  and  _590
REMARK  228  A    between atoms: _590  and  _591
REMARK  229  A    between atoms: _594  and  _596
REMARK  230  A    between atoms: _596  and  _597
REMARK  231  A    between atoms: _600  and  _602
REMARK  232  A    between atoms: _602  and  _603
REMARK  233  A    between atoms: _602  and  _605
REMARK  234  A    between atoms: _605  and  _606
REMARK  235  A    between atoms: _611  and  _612
REMARK  236  A    between atoms: _614  and  _616
REMARK  237  A    between atoms: _616  and  _617
REMARK  238  A    between atoms: _616  and  _619
REMARK  239  A    between atoms: _619  and  _620
REMARK  240  A    between atoms: _625  and  _626
REMARK  241  A    between atoms: _628  and  _630
REMARK  242  A    between atoms: _630  and  _631
REMARK  243  A    between atoms: _630  and  _633
REMARK  244  A    between atoms: _636  and  _638
REMARK  245  A    between atoms: _638  and  _639
REMARK  246  A    between atoms: _638  and  _641
REMARK  247  A    between atoms: _641  and  _642
REMARK  248  A    between atoms: _647  and  _649
REMARK  249  A    between atoms: _649  and  _650
REMARK  250  A    between atoms: _653  and  _655
REMARK  251  A    between atoms: _655  and  _656
REMARK  252  A    between atoms: _655  and  _658
REMARK  253  A    between atoms: _658  and  _659
REMARK  254  A    between atoms: _659  and  _660
REMARK  255  A    between atoms: _660  and  _661
REMARK  256  A    between atoms: _670  and  _672
REMARK  257  A    between atoms: _672  and  _673
REMARK  258  A    between atoms: _672  and  _675
REMARK  259  A    between atoms: _675  and  _676
REMARK  260  A    between atoms: _679  and  _681
REMARK  261  A    between atoms: _681  and  _682
REMARK  262  A    between atoms: _681  and  _684
REMARK  263  A    between atoms: _684  and  _685
REMARK  264  A    between atoms: _688  and  _690
REMARK  265  A    between atoms: _690  and  _691
REMARK  266  A    between atoms: _690  and  _693
REMARK  267  A    between atoms: _693  and  _694
REMARK  268  A    between atoms: _724  and  _725
REMARK  269  A    between atoms: _725  and  _731
REMARK                            x       y       z     vdW  Elec       q    Type
REMARK                         _______ _______ _______ _____ _____    ______ ____
ROOT
ATOM      1  O   HOH     1      -8.188  14.511  12.760  0.00  0.00    +0.000 OA
ENDROOT
TORSDOF 0
REMARK  Name = ../refined-set-2016/1b3h/1b3h_pocket.pdb
REMARK  269 active torsions:
REMARK  status: ('A' for Active; 'I' for Inactive)
REMARK    1  A    between atoms: _1  and  _3
REMARK    2  A    between atoms: _3  and  _4
REMARK    3  A    between atoms: _3  and  _6
REMARK    4  A    between atoms: _6  and  _7
REMARK    5  A    between atoms: _12  and  _14
REMARK    6  A    between atoms: _14  and  _15
REMARK    7  A    between atoms: _17  and  _19
REMARK    8  A    between atoms: _19  and  _20
REMARK    9  A    between atoms: _19  and  _22
REMARK   10  A    between atoms: _22  and  _23
REMARK   11  A    between atoms: _25  and  _27
REMARK   12  A    between atoms: _27  and  _28
REMARK   13  A    between atoms: _27  and  _30
REMARK   14  A    between atoms: _30  and  _31
REMARK   15  A    between atoms: _31  and  _32
REMARK   16  A    between atoms: _37  and  _39
REMARK   17  A    between atoms: _39  and  _40
REMARK   18  A    between atoms: _39  and  _42
REMARK   19  A    between atoms: _42  and  _43
REMARK   20  A    between atoms: _46  and  _48
REMARK   21  A    between atoms: _48  and  _49
REMARK   22  A    between atoms: _48  and  _51
REMARK   23  A    between atoms: _51  and  _52
REMARK   24  A    between atoms: _52  and  _53
REMARK   25  A    between atoms: _56  and  _58
REMARK   26  A    between atoms: _58  and  _59
REMARK   27  A    between atoms: _61  and  _63
REMARK   28  A    between atoms: _63  and  _64
REMARK   29  A    between atoms: _63  and  _66
REMARK   30  A    between atoms: _70  and  _71
REMARK   31  A    between atoms: _76  and  _78
REMARK   32  A    between atoms: _78  and  _79
REMARK   33  A    between atoms: _78  and  _81
REMARK   34  A    between atoms: _81  and  _82
REMARK   35  A    between atoms: _82  and  _83
REMARK   36  A    between atoms: _86  and  _88
REMARK   37  A    between atoms: _88  and  _89
REMARK   38  A    between atoms: _88  and  _91
REMARK   39  A    between atoms: _91  and  _92
REMARK   40  A    between atoms: _94  and  _96
REMARK   41  A    between atoms: _96  and  _97
REMARK   42  A    between atoms: _96  and  _99
REMARK   43  A    between atoms: _99  and  _100
REMARK   44  A    between atoms: _105  and  _107
REMARK   45  A    between atoms: _107  and  _108
REMARK   46  A    between atoms: _107  and  _110
REMARK   47  A    between atoms: _110  and  _111
REMARK   48  A    between atoms: _111  and  _112
REMARK   49  A    between atoms: _112  and  _113
REMARK   50  A    between atoms: _123  and  _124
REMARK   51  A    between atoms: _129  and  _131
REMARK   52  A    between atoms: _131  and  _132
REMARK   53  A    between atoms: _131  and  _134
REMARK   54  A    between atoms: _134  and  _135
REMARK   55  A    between atoms: _140  and  _141
REMARK   56  A    between atoms: _143  and  _145
REMARK   57  A    between atoms: _145  and  _146
REMARK   58  A    between atoms: _145  and  _148
REMARK   59  A    between atoms: _148  and  _149
REMARK   60  A    between atoms: _154  and  _155
REMARK   61  A    between atoms: _157  and  _159
REMARK   62  A    between atoms: _159  and  _160
REMARK   63  A    between atoms: _159  and  _162
REMARK   64  A    between atoms: _162  and  _163
REMARK   65  A    between atoms: _168  and  _169
REMARK   66  A    between atoms: _171  and  _173
REMARK   67  A    between atoms: _173  and  _174
REMARK   68  A    between atoms: _173  and  _176
REMARK   69  A    between atoms: _179  and  _181
REMARK   70  A    between atoms: _181  and  _182
REMARK   71  A    between atoms: _181  and  _184
REMARK   72  A    between atoms: _184  and  _185
REMARK   73  A    between atoms: _191  and  _192
REMARK   74  A    between atoms: _197  and  _199
REMARK   75  A    between atoms: _199  and  _200
REMARK   76  A    between atoms: _199  and  _202
REMARK   77  A    between atoms: _202  and  _203
REMARK   78  A    between atoms: _205  and  _207
REMARK   79  A    between atoms: _207  and  _208
REMARK   80  A    between atoms: _207  and  _210
REMARK   81  A    between atoms: _210  and  _211
REMARK   82  A    between atoms: _216  and  _217
REMARK   83  A    between atoms: _219  and  _221
REMARK   84  A    between atoms: _221  and  _222
REMARK   85  A    between atoms: _221  and  _224
REMARK   86  A    between atoms: _224  and  _225
REMARK   87  A    between atoms: _230  and  _232
REMARK   88  A    between atoms: _232  and  _233
REMARK   89  A    between atoms: _232  and  _235
REMARK   90  A    between atoms: _235  and  _236
REMARK   91  A    between atoms: _241  and  _243
REMARK   92  A    between atoms: _243  and  _244
REMARK   93  A    between atoms: _243  and  _246
REMARK   94  A    between atoms: _246  and  _247
REMARK   95  A    between atoms: _247  and  _248
REMARK   96  A    between atoms: _250  and  _252
REMARK   97  A    between atoms: _252  and  _253
REMARK   98  A    between atoms: _252  and  _255
REMARK   99  A    between atoms: _255  and  _256
REMARK  100  A    between atoms: _261  and  _262
REMARK  101  A    between atoms: _264  and  _266
REMARK  102  A    between atoms: _266  and  _267
REMARK  103  A    between atoms: _266  and  _269
REMARK  104  A    between atoms: _269  and  _270
REMARK  105  A    between atoms: _273  and  _275
REMARK  106  A    between atoms: _275  and  _276
REMARK  107  A    between atoms: _275  and  _278
REMARK  108  A    between atoms: _278  and  _279
REMARK  109  A    between atoms: _279  and  _496
REMARK  110  A    between atoms: _280  and  _282
REMARK  111  A    between atoms: _282  and  _283
REMARK  112  A    between atoms: _282  and  _285
REMARK  113  A    between atoms: _285  and  _286
REMARK  114  A    between atoms: _289  and  _291
REMARK  115  A    between atoms: _291  and  _292
REMARK  116  A    between atoms: _291  and  _294
REMARK  117  A    between atoms: _294  and  _295
REMARK  118  A    between atoms: _300  and  _301
REMARK  119  A    between atoms: _303  and  _305
REMARK  120  A    between atoms: _305  and  _306
REMARK  121  A    between atoms: _305  and  _308
REMARK  122  A    between atoms: _308  and  _309
REMARK  123  A    between atoms: _314  and  _315
REMARK  124  A    between atoms: _317  and  _319
REMARK  125  A    between atoms: _319  and  _320
REMARK  126  A    between atoms: _319  and  _322
REMARK  127  A    between atoms: _322  and  _323
REMARK  128  A    between atoms: _323  and  _324
REMARK  129  A    between atoms: _327  and  _329
REMARK  130  A    between atoms: _329  and  _330
REMARK  131  A    between atoms: _329  and  _332
REMARK  132  A    between atoms: _332  and  _333
REMARK  133  A    between atoms: _338  and  _339
REMARK  134  A    between atoms: _341  and  _343
REMARK  135  A    between atoms: _343  and  _344
REMARK  136  A    between atoms: _343  and  _346
REMARK  137  A    between atoms: _346  and  _347
REMARK  138  A    between atoms: _352  and  _354
REMARK  139  A    between atoms: _354  and  _355
REMARK  140  A    between atoms: _354  and  _357
REMARK  141  A    between atoms: _357  and  _358
REMARK  142  A    between atoms: _361  and  _363
REMARK  143  A    between atoms: _363  and  _364
REMARK  144  A    between atoms: _363  and  _366
REMARK  145  A    between atoms: _366  and  _367
REMARK  146  A    between atoms: _372  and  _374
REMARK  147  A    between atoms: _374  and  _375
REMARK  148  A    between atoms: _374  and  _377
REMARK  149  A    between atoms: _377  and  _378
REMARK  150  A    between atoms: _388  and  _390
REMARK  151  A    between atoms: _390  and  _391
REMARK  152  A    between atoms: _390  and  _393
REMARK  153  A    between atoms: _393  and  _394
REMARK  154  A    between atoms: _400  and  _402
REMARK  155  A    between atoms: _402  and  _403
REMARK  156  A    between atoms: _402  and  _405
REMARK  157  A    between atoms: _405  and  _406
REMARK  158  A    between atoms: _409  and  _411
REMARK  159  A    between atoms: _411  and  _412
REMARK  160  A    between atoms: _411  and  _414
REMARK  161  A    between atoms: _414  and  _415
REMARK  162  A    between atoms: _418  and  _420
REMARK  163  A    between atoms: _420  and  _421
REMARK  164  A    between atoms: _420  and  _423
REMARK  165  A    between atoms: _423  and  _424
REMARK  166  A    between atoms: _424  and  _425
REMARK  167  A    between atoms: _425  and  _426
REMARK  168  A    between atoms: _435  and  _437
REMARK  169  A    between atoms: _437  and  _438
REMARK  170  A    between atoms: _437  and  _440
REMARK  171  A    between atoms: _440  and  _441
REMARK  172  A    between atoms: _446  and  _448
REMARK  173  A    between atoms: _448  and  _449
REMARK  174  A    between atoms: _448  and  _451
REMARK  175  A    between atoms: _451  and  _452
REMARK  176  A    between atoms: _452  and  _453
REMARK  177  A    between atoms: _453  and  _454
REMARK  178  A    between atoms: _463  and  _465
REMARK  179  A    between atoms: _465  and  _466
REMARK  180  A    between atoms: _469  and  _471
REMARK  181  A    between atoms: _471  and  _472
REMARK  182  A    between atoms: _474  and  _476
REMARK  183  A    between atoms: _476  and  _477
REMARK  184  A    between atoms: _476  and  _479
REMARK  185  A    between atoms: _479  and  _480
REMARK  186  A    between atoms: _490  and  _492
REMARK  187  A    between atoms: _492  and  _493
REMARK  188  A    between atoms: _492  and  _495
REMARK  189  A    between atoms: _495  and  _496
REMARK  190  A    between atoms: _497  and  _499
REMARK  191  A    between atoms: _499  and  _500
REMARK  192  A    between atoms: _503  and  _505
REMARK  193  A    between atoms: _505  and  _506
REMARK  194  A    between atoms: _505  and  _508
REMARK  195  A    between atoms: _508  and  _509
REMARK  196  A    between atoms: _512  and  _514
REMARK  197  A    between atoms: _514  and  _515
REMARK  198  A    between atoms: _514  and  _517
REMARK  199  A    between atoms: _517  and  _518
REMARK  200  A    between atoms: _523  and  _524
REMARK  201  A    between atoms: _526  and  _528
REMARK  202  A    between atoms: _528  and  _529
REMARK  203  A    between atoms: _528  and  _531
REMARK  204  A    between atoms: _531  and  _532
REMARK  205  A    between atoms: _534  and  _536
REMARK  206  A    between atoms: _536  and  _537
REMARK  207  A    between atoms: _536  and  _539
REMARK  208  A    between atoms: _539  and  _540
REMARK  209  A    between atoms: _546  and  _548
REMARK  210  A    between atoms: _548  and  _549
REMARK  211  A    between atoms: _548  and  _551
REMARK  212  A    between atoms: _551  and  _552
REMARK  213  A    between atoms: _555  and  _557
REMARK  214  A    between atoms: _557  and  _558
REMARK  215  A    between atoms: _557  and  _560
REMARK  216  A    between atoms: _560  and  _561
REMARK  217  A    between atoms: _563  and  _565
REMARK  218  A    between atoms: _565  and  _566
REMARK  219  A    between atoms: _565  and  _568
REMARK  220  A    between atoms: _568  and  _569
REMARK  221  A    between atoms: _574  and  _576
REMARK  222  A    between atoms: _576  and  _577
REMARK  223  A    between atoms: _576  and  _579
REMARK  224  A    between atoms: _579  and  _580
REMARK  225  A    between atoms: _585  and  _587
REMARK  226  A    between atoms: _587  and  _588
REMARK  227  A    between atoms: _587  and  _590
REMARK  228  A    between atoms: _590  and  _591
REMARK  229  A    between atoms: _594  and  _596
REMARK  230  A    between atoms: _596  and  _597
REMARK  231  A    between atoms: _600  and  _602
REMARK  232  A    between atoms: _602  and  _603
REMARK  233  A    between atoms: _602  and  _605
REMARK  234  A    between atoms: _605  and  _606
REMARK  235  A    between atoms: _611  and  _612
REMARK  236  A    between atoms: _614  and  _616
REMARK  237  A    between atoms: _616  and  _617
REMARK  238  A    between atoms: _616  and  _619
REMARK  239  A    between atoms: _619  and  _620
REMARK  240  A    between atoms: _625  and  _626
REMARK  241  A    between atoms: _628  and  _630
REMARK  242  A    between atoms: _630  and  _631
REMARK  243  A    between atoms: _630  and  _633
REMARK  244  A    between atoms: _636  and  _638
REMARK  245  A    between atoms: _638  and  _639
REMARK  246  A    between atoms: _638  and  _641
REMARK  247  A    between atoms: _641  and  _642
REMARK  248  A    between atoms: _647  and  _649
REMARK  249  A    between atoms: _649  and  _650
REMARK  250  A    between atoms: _653  and  _655
REMARK  251  A    between atoms: _655  and  _656
REMARK  252  A    between atoms: _655  and  _658
REMARK  253  A    between atoms: _658  and  _659
REMARK  254  A    between atoms: _659  and  _660
REMARK  255  A    between atoms: _660  and  _661
REMARK  256  A    between atoms: _670  and  _672
REMARK  257  A    between atoms: _672  and  _673
REMARK  258  A    between atoms: _672  and  _675
REMARK  259  A    between atoms: _675  and  _676
REMARK  260  A    between atoms: _679  and  _681
REMARK  261  A    between atoms: _681  and  _682
REMARK  262  A    between atoms: _681  and  _684
REMARK  263  A    between atoms: _684  and  _685
REMARK  264  A    between atoms: _688  and  _690
REMARK  265  A    between atoms: _690  and  _691
REMARK  266  A    between atoms: _690  and  _693
REMARK  267  A    between atoms: _693  and  _694
REMARK  268  A    between atoms: _724  and  _725
REMARK  269  A    between atoms: _725  and  _731
REMARK                            x       y       z     vdW  Elec       q    Type
REMARK                         _______ _______ _______ _____ _____    ______ ____
ROOT
ATOM      1  O   HOH     1     -10.032  16.004  14.433  0.00  0.00    +0.000 OA
ENDROOT
TORSDOF 0
REMARK  Name = ../refined-set-2016/1b3h/1b3h_pocket.pdb
REMARK  269 active torsions:
REMARK  status: ('A' for Active; 'I' for Inactive)
REMARK    1  A    between atoms: _1  and  _3
REMARK    2  A    between atoms: _3  and  _4
REMARK    3  A    between atoms: _3  and  _6
REMARK    4  A    between atoms: _6  and  _7
REMARK    5  A    between atoms: _12  and  _14
REMARK    6  A    between atoms: _14  and  _15
REMARK    7  A    between atoms: _17  and  _19
REMARK    8  A    between atoms: _19  and  _20
REMARK    9  A    between atoms: _19  and  _22
REMARK   10  A    between atoms: _22  and  _23
REMARK   11  A    between atoms: _25  and  _27
REMARK   12  A    between atoms: _27  and  _28
REMARK   13  A    between atoms: _27  and  _30
REMARK   14  A    between atoms: _30  and  _31
REMARK   15  A    between atoms: _31  and  _32
REMARK   16  A    between atoms: _37  and  _39
REMARK   17  A    between atoms: _39  and  _40
REMARK   18  A    between atoms: _39  and  _42
REMARK   19  A    between atoms: _42  and  _43
REMARK   20  A    between atoms: _46  and  _48
REMARK   21  A    between atoms: _48  and  _49
REMARK   22  A    between atoms: _48  and  _51
REMARK   23  A    between atoms: _51  and  _52
REMARK   24  A    between atoms: _52  and  _53
REMARK   25  A    between atoms: _56  and  _58
REMARK   26  A    between atoms: _58  and  _59
REMARK   27  A    between atoms: _61  and  _63
REMARK   28  A    between atoms: _63  and  _64
REMARK   29  A    between atoms: _63  and  _66
REMARK   30  A    between atoms: _70  and  _71
REMARK   31  A    between atoms: _76  and  _78
REMARK   32  A    between atoms: _78  and  _79
REMARK   33  A    between atoms: _78  and  _81
REMARK   34  A    between atoms: _81  and  _82
REMARK   35  A    between atoms: _82  and  _83
REMARK   36  A    between atoms: _86  and  _88
REMARK   37  A    between atoms: _88  and  _89
REMARK   38  A    between atoms: _88  and  _91
REMARK   39  A    between atoms: _91  and  _92
REMARK   40  A    between atoms: _94  and  _96
REMARK   41  A    between atoms: _96  and  _97
REMARK   42  A    between atoms: _96  and  _99
REMARK   43  A    between atoms: _99  and  _100
REMARK   44  A    between atoms: _105  and  _107
REMARK   45  A    between atoms: _107  and  _108
REMARK   46  A    between atoms: _107  and  _110
REMARK   47  A    between atoms: _110  and  _111
REMARK   48  A    between atoms: _111  and  _112
REMARK   49  A    between atoms: _112  and  _113
REMARK   50  A    between atoms: _123  and  _124
REMARK   51  A    between atoms: _129  and  _131
REMARK   52  A    between atoms: _131  and  _132
REMARK   53  A    between atoms: _131  and  _134
REMARK   54  A    between atoms: _134  and  _135
REMARK   55  A    between atoms: _140  and  _141
REMARK   56  A    between atoms: _143  and  _145
REMARK   57  A    between atoms: _145  and  _146
REMARK   58  A    between atoms: _145  and  _148
REMARK   59  A    between atoms: _148  and  _149
REMARK   60  A    between atoms: _154  and  _155
REMARK   61  A    between atoms: _157  and  _159
REMARK   62  A    between atoms: _159  and  _160
REMARK   63  A    between atoms: _159  and  _162
REMARK   64  A    between atoms: _162  and  _163
REMARK   65  A    between atoms: _168  and  _169
REMARK   66  A    between atoms: _171  and  _173
REMARK   67  A    between atoms: _173  and  _174
REMARK   68  A    between atoms: _173  and  _176
REMARK   69  A    between atoms: _179  and  _181
REMARK   70  A    between atoms: _181  and  _182
REMARK   71  A    between atoms: _181  and  _184
REMARK   72  A    between atoms: _184  and  _185
REMARK   73  A    between atoms: _191  and  _192
REMARK   74  A    between atoms: _197  and  _199
REMARK   75  A    between atoms: _199  and  _200
REMARK   76  A    between atoms: _199  and  _202
REMARK   77  A    between atoms: _202  and  _203
REMARK   78  A    between atoms: _205  and  _207
REMARK   79  A    between atoms: _207  and  _208
REMARK   80  A    between atoms: _207  and  _210
REMARK   81  A    between atoms: _210  and  _211
REMARK   82  A    between atoms: _216  and  _217
REMARK   83  A    between atoms: _219  and  _221
REMARK   84  A    between atoms: _221  and  _222
REMARK   85  A    between atoms: _221  and  _224
REMARK   86  A    between atoms: _224  and  _225
REMARK   87  A    between atoms: _230  and  _232
REMARK   88  A    between atoms: _232  and  _233
REMARK   89  A    between atoms: _232  and  _235
REMARK   90  A    between atoms: _235  and  _236
REMARK   91  A    between atoms: _241  and  _243
REMARK   92  A    between atoms: _243  and  _244
REMARK   93  A    between atoms: _243  and  _246
REMARK   94  A    between atoms: _246  and  _247
REMARK   95  A    between atoms: _247  and  _248
REMARK   96  A    between atoms: _250  and  _252
REMARK   97  A    between atoms: _252  and  _253
REMARK   98  A    between atoms: _252  and  _255
REMARK   99  A    between atoms: _255  and  _256
REMARK  100  A    between atoms: _261  and  _262
REMARK  101  A    between atoms: _264  and  _266
REMARK  102  A    between atoms: _266  and  _267
REMARK  103  A    between atoms: _266  and  _269
REMARK  104  A    between atoms: _269  and  _270
REMARK  105  A    between atoms: _273  and  _275
REMARK  106  A    between atoms: _275  and  _276
REMARK  107  A    between atoms: _275  and  _278
REMARK  108  A    between atoms: _278  and  _279
REMARK  109  A    between atoms: _279  and  _496
REMARK  110  A    between atoms: _280  and  _282
REMARK  111  A    between atoms: _282  and  _283
REMARK  112  A    between atoms: _282  and  _285
REMARK  113  A    between atoms: _285  and  _286
REMARK  114  A    between atoms: _289  and  _291
REMARK  115  A    between atoms: _291  and  _292
REMARK  116  A    between atoms: _291  and  _294
REMARK  117  A    between atoms: _294  and  _295
REMARK  118  A    between atoms: _300  and  _301
REMARK  119  A    between atoms: _303  and  _305
REMARK  120  A    between atoms: _305  and  _306
REMARK  121  A    between atoms: _305  and  _308
REMARK  122  A    between atoms: _308  and  _309
REMARK  123  A    between atoms: _314  and  _315
REMARK  124  A    between atoms: _317  and  _319
REMARK  125  A    between atoms: _319  and  _320
REMARK  126  A    between atoms: _319  and  _322
REMARK  127  A    between atoms: _322  and  _323
REMARK  128  A    between atoms: _323  and  _324
REMARK  129  A    between atoms: _327  and  _329
REMARK  130  A    between atoms: _329  and  _330
REMARK  131  A    between atoms: _329  and  _332
REMARK  132  A    between atoms: _332  and  _333
REMARK  133  A    between atoms: _338  and  _339
REMARK  134  A    between atoms: _341  and  _343
REMARK  135  A    between atoms: _343  and  _344
REMARK  136  A    between atoms: _343  and  _346
REMARK  137  A    between atoms: _346  and  _347
REMARK  138  A    between atoms: _352  and  _354
REMARK  139  A    between atoms: _354  and  _355
REMARK  140  A    between atoms: _354  and  _357
REMARK  141  A    between atoms: _357  and  _358
REMARK  142  A    between atoms: _361  and  _363
REMARK  143  A    between atoms: _363  and  _364
REMARK  144  A    between atoms: _363  and  _366
REMARK  145  A    between atoms: _366  and  _367
REMARK  146  A    between atoms: _372  and  _374
REMARK  147  A    between atoms: _374  and  _375
REMARK  148  A    between atoms: _374  and  _377
REMARK  149  A    between atoms: _377  and  _378
REMARK  150  A    between atoms: _388  and  _390
REMARK  151  A    between atoms: _390  and  _391
REMARK  152  A    between atoms: _390  and  _393
REMARK  153  A    between atoms: _393  and  _394
REMARK  154  A    between atoms: _400  and  _402
REMARK  155  A    between atoms: _402  and  _403
REMARK  156  A    between atoms: _402  and  _405
REMARK  157  A    between atoms: _405  and  _406
REMARK  158  A    between atoms: _409  and  _411
REMARK  159  A    between atoms: _411  and  _412
REMARK  160  A    between atoms: _411  and  _414
REMARK  161  A    between atoms: _414  and  _415
REMARK  162  A    between atoms: _418  and  _420
REMARK  163  A    between atoms: _420  and  _421
REMARK  164  A    between atoms: _420  and  _423
REMARK  165  A    between atoms: _423  and  _424
REMARK  166  A    between atoms: _424  and  _425
REMARK  167  A    between atoms: _425  and  _426
REMARK  168  A    between atoms: _435  and  _437
REMARK  169  A    between atoms: _437  and  _438
REMARK  170  A    between atoms: _437  and  _440
REMARK  171  A    between atoms: _440  and  _441
REMARK  172  A    between atoms: _446  and  _448
REMARK  173  A    between atoms: _448  and  _449
REMARK  174  A    between atoms: _448  and  _451
REMARK  175  A    between atoms: _451  and  _452
REMARK  176  A    between atoms: _452  and  _453
REMARK  177  A    between atoms: _453  and  _454
REMARK  178  A    between atoms: _463  and  _465
REMARK  179  A    between atoms: _465  and  _466
REMARK  180  A    between atoms: _469  and  _471
REMARK  181  A    between atoms: _471  and  _472
REMARK  182  A    between atoms: _474  and  _476
REMARK  183  A    between atoms: _476  and  _477
REMARK  184  A    between atoms: _476  and  _479
REMARK  185  A    between atoms: _479  and  _480
REMARK  186  A    between atoms: _490  and  _492
REMARK  187  A    between atoms: _492  and  _493
REMARK  188  A    between atoms: _492  and  _495
REMARK  189  A    between atoms: _495  and  _496
REMARK  190  A    between atoms: _497  and  _499
REMARK  191  A    between atoms: _499  and  _500
REMARK  192  A    between atoms: _503  and  _505
REMARK  193  A    between atoms: _505  and  _506
REMARK  194  A    between atoms: _505  and  _508
REMARK  195  A    between atoms: _508  and  _509
REMARK  196  A    between atoms: _512  and  _514
REMARK  197  A    between atoms: _514  and  _515
REMARK  198  A    between atoms: _514  and  _517
REMARK  199  A    between atoms: _517  and  _518
REMARK  200  A    between atoms: _523  and  _524
REMARK  201  A    between atoms: _526  and  _528
REMARK  202  A    between atoms: _528  and  _529
REMARK  203  A    between atoms: _528  and  _531
REMARK  204  A    between atoms: _531  and  _532
REMARK  205  A    between atoms: _534  and  _536
REMARK  206  A    between atoms: _536  and  _537
REMARK  207  A    between atoms: _536  and  _539
REMARK  208  A    between atoms: _539  and  _540
REMARK  209  A    between atoms: _546  and  _548
REMARK  210  A    between atoms: _548  and  _549
REMARK  211  A    between atoms: _548  and  _551
REMARK  212  A    between atoms: _551  and  _552
REMARK  213  A    between atoms: _555  and  _557
REMARK  214  A    between atoms: _557  and  _558
REMARK  215  A    between atoms: _557  and  _560
REMARK  216  A    between atoms: _560  and  _561
REMARK  217  A    between atoms: _563  and  _565
REMARK  218  A    between atoms: _565  and  _566
REMARK  219  A    between atoms: _565  and  _568
REMARK  220  A    between atoms: _568  and  _569
REMARK  221  A    between atoms: _574  and  _576
REMARK  222  A    between atoms: _576  and  _577
REMARK  223  A    between atoms: _576  and  _579
REMARK  224  A    between atoms: _579  and  _580
REMARK  225  A    between atoms: _585  and  _587
REMARK  226  A    between atoms: _587  and  _588
REMARK  227  A    between atoms: _587  and  _590
REMARK  228  A    between atoms: _590  and  _591
REMARK  229  A    between atoms: _594  and  _596
REMARK  230  A    between atoms: _596  and  _597
REMARK  231  A    between atoms: _600  and  _602
REMARK  232  A    between atoms: _602  and  _603
REMARK  233  A    between atoms: _602  and  _605
REMARK  234  A    between atoms: _605  and  _606
REMARK  235  A    between atoms: _611  and  _612
REMARK  236  A    between atoms: _614  and  _616
REMARK  237  A    between atoms: _616  and  _617
REMARK  238  A    between atoms: _616  and  _619
REMARK  239  A    between atoms: _619  and  _620
REMARK  240  A    between atoms: _625  and  _626
REMARK  241  A    between atoms: _628  and  _630
REMARK  242  A    between atoms: _630  and  _631
REMARK  243  A    between atoms: _630  and  _633
REMARK  244  A    between atoms: _636  and  _638
REMARK  245  A    between atoms: _638  and  _639
REMARK  246  A    between atoms: _638  and  _641
REMARK  247  A    between atoms: _641  and  _642
REMARK  248  A    between atoms: _647  and  _649
REMARK  249  A    between atoms: _649  and  _650
REMARK  250  A    between atoms: _653  and  _655
REMARK  251  A    between atoms: _655  and  _656
REMARK  252  A    between atoms: _655  and  _658
REMARK  253  A    between atoms: _658  and  _659
REMARK  254  A    between atoms: _659  and  _660
REMARK  255  A    between atoms: _660  and  _661
REMARK  256  A    between atoms: _670  and  _672
REMARK  257  A    between atoms: _672  and  _673
REMARK  258  A    between atoms: _672  and  _675
REMARK  259  A    between atoms: _675  and  _676
REMARK  260  A    between atoms: _679  and  _681
REMARK  261  A    between atoms: _681  and  _682
REMARK  262  A    between atoms: _681  and  _684
REMARK  263  A    between atoms: _684  and  _685
REMARK  264  A    between atoms: _688  and  _690
REMARK  265  A    between atoms: _690  and  _691
REMARK  266  A    between atoms: _690  and  _693
REMARK  267  A    between atoms: _693  and  _694
REMARK  268  A    between atoms: _724  and  _725
REMARK  269  A    between atoms: _725  and  _731
REMARK                            x       y       z     vdW  Elec       q    Type
REMARK                         _______ _______ _______ _____ _____    ______ ____
ROOT
ATOM      1  O   HOH     1      -3.202  17.758   5.476  0.00  0.00    +0.000 OA
ENDROOT
TORSDOF 0
REMARK  Name = ../refined-set-2016/1b3h/1b3h_pocket.pdb
REMARK  269 active torsions:
REMARK  status: ('A' for Active; 'I' for Inactive)
REMARK    1  A    between atoms: _1  and  _3
REMARK    2  A    between atoms: _3  and  _4
REMARK    3  A    between atoms: _3  and  _6
REMARK    4  A    between atoms: _6  and  _7
REMARK    5  A    between atoms: _12  and  _14
REMARK    6  A    between atoms: _14  and  _15
REMARK    7  A    between atoms: _17  and  _19
REMARK    8  A    between atoms: _19  and  _20
REMARK    9  A    between atoms: _19  and  _22
REMARK   10  A    between atoms: _22  and  _23
REMARK   11  A    between atoms: _25  and  _27
REMARK   12  A    between atoms: _27  and  _28
REMARK   13  A    between atoms: _27  and  _30
REMARK   14  A    between atoms: _30  and  _31
REMARK   15  A    between atoms: _31  and  _32
REMARK   16  A    between atoms: _37  and  _39
REMARK   17  A    between atoms: _39  and  _40
REMARK   18  A    between atoms: _39  and  _42
REMARK   19  A    between atoms: _42  and  _43
REMARK   20  A    between atoms: _46  and  _48
REMARK   21  A    between atoms: _48  and  _49
REMARK   22  A    between atoms: _48  and  _51
REMARK   23  A    between atoms: _51  and  _52
REMARK   24  A    between atoms: _52  and  _53
REMARK   25  A    between atoms: _56  and  _58
REMARK   26  A    between atoms: _58  and  _59
REMARK   27  A    between atoms: _61  and  _63
REMARK   28  A    between atoms: _63  and  _64
REMARK   29  A    between atoms: _63  and  _66
REMARK   30  A    between atoms: _70  and  _71
REMARK   31  A    between atoms: _76  and  _78
REMARK   32  A    between atoms: _78  and  _79
REMARK   33  A    between atoms: _78  and  _81
REMARK   34  A    between atoms: _81  and  _82
REMARK   35  A    between atoms: _82  and  _83
REMARK   36  A    between atoms: _86  and  _88
REMARK   37  A    between atoms: _88  and  _89
REMARK   38  A    between atoms: _88  and  _91
REMARK   39  A    between atoms: _91  and  _92
REMARK   40  A    between atoms: _94  and  _96
REMARK   41  A    between atoms: _96  and  _97
REMARK   42  A    between atoms: _96  and  _99
REMARK   43  A    between atoms: _99  and  _100
REMARK   44  A    between atoms: _105  and  _107
REMARK   45  A    between atoms: _107  and  _108
REMARK   46  A    between atoms: _107  and  _110
REMARK   47  A    between atoms: _110  and  _111
REMARK   48  A    between atoms: _111  and  _112
REMARK   49  A    between atoms: _112  and  _113
REMARK   50  A    between atoms: _123  and  _124
REMARK   51  A    between atoms: _129  and  _131
REMARK   52  A    between atoms: _131  and  _132
REMARK   53  A    between atoms: _131  and  _134
REMARK   54  A    between atoms: _134  and  _135
REMARK   55  A    between atoms: _140  and  _141
REMARK   56  A    between atoms: _143  and  _145
REMARK   57  A    between atoms: _145  and  _146
REMARK   58  A    between atoms: _145  and  _148
REMARK   59  A    between atoms: _148  and  _149
REMARK   60  A    between atoms: _154  and  _155
REMARK   61  A    between atoms: _157  and  _159
REMARK   62  A    between atoms: _159  and  _160
REMARK   63  A    between atoms: _159  and  _162
REMARK   64  A    between atoms: _162  and  _163
REMARK   65  A    between atoms: _168  and  _169
REMARK   66  A    between atoms: _171  and  _173
REMARK   67  A    between atoms: _173  and  _174
REMARK   68  A    between atoms: _173  and  _176
REMARK   69  A    between atoms: _179  and  _181
REMARK   70  A    between atoms: _181  and  _182
REMARK   71  A    between atoms: _181  and  _184
REMARK   72  A    between atoms: _184  and  _185
REMARK   73  A    between atoms: _191  and  _192
REMARK   74  A    between atoms: _197  and  _199
REMARK   75  A    between atoms: _199  and  _200
REMARK   76  A    between atoms: _199  and  _202
REMARK   77  A    between atoms: _202  and  _203
REMARK   78  A    between atoms: _205  and  _207
REMARK   79  A    between atoms: _207  and  _208
REMARK   80  A    between atoms: _207  and  _210
REMARK   81  A    between atoms: _210  and  _211
REMARK   82  A    between atoms: _216  and  _217
REMARK   83  A    between atoms: _219  and  _221
REMARK   84  A    between atoms: _221  and  _222
REMARK   85  A    between atoms: _221  and  _224
REMARK   86  A    between atoms: _224  and  _225
REMARK   87  A    between atoms: _230  and  _232
REMARK   88  A    between atoms: _232  and  _233
REMARK   89  A    between atoms: _232  and  _235
REMARK   90  A    between atoms: _235  and  _236
REMARK   91  A    between atoms: _241  and  _243
REMARK   92  A    between atoms: _243  and  _244
REMARK   93  A    between atoms: _243  and  _246
REMARK   94  A    between atoms: _246  and  _247
REMARK   95  A    between atoms: _247  and  _248
REMARK   96  A    between atoms: _250  and  _252
REMARK   97  A    between atoms: _252  and  _253
REMARK   98  A    between atoms: _252  and  _255
REMARK   99  A    between atoms: _255  and  _256
REMARK  100  A    between atoms: _261  and  _262
REMARK  101  A    between atoms: _264  and  _266
REMARK  102  A    between atoms: _266  and  _267
REMARK  103  A    between atoms: _266  and  _269
REMARK  104  A    between atoms: _269  and  _270
REMARK  105  A    between atoms: _273  and  _275
REMARK  106  A    between atoms: _275  and  _276
REMARK  107  A    between atoms: _275  and  _278
REMARK  108  A    between atoms: _278  and  _279
REMARK  109  A    between atoms: _279  and  _496
REMARK  110  A    between atoms: _280  and  _282
REMARK  111  A    between atoms: _282  and  _283
REMARK  112  A    between atoms: _282  and  _285
REMARK  113  A    between atoms: _285  and  _286
REMARK  114  A    between atoms: _289  and  _291
REMARK  115  A    between atoms: _291  and  _292
REMARK  116  A    between atoms: _291  and  _294
REMARK  117  A    between atoms: _294  and  _295
REMARK  118  A    between atoms: _300  and  _301
REMARK  119  A    between atoms: _303  and  _305
REMARK  120  A    between atoms: _305  and  _306
REMARK  121  A    between atoms: _305  and  _308
REMARK  122  A    between atoms: _308  and  _309
REMARK  123  A    between atoms: _314  and  _315
REMARK  124  A    between atoms: _317  and  _319
REMARK  125  A    between atoms: _319  and  _320
REMARK  126  A    between atoms: _319  and  _322
REMARK  127  A    between atoms: _322  and  _323
REMARK  128  A    between atoms: _323  and  _324
REMARK  129  A    between atoms: _327  and  _329
REMARK  130  A    between atoms: _329  and  _330
REMARK  131  A    between atoms: _329  and  _332
REMARK  132  A    between atoms: _332  and  _333
REMARK  133  A    between atoms: _338  and  _339
REMARK  134  A    between atoms: _341  and  _343
REMARK  135  A    between atoms: _343  and  _344
REMARK  136  A    between atoms: _343  and  _346
REMARK  137  A    between atoms: _346  and  _347
REMARK  138  A    between atoms: _352  and  _354
REMARK  139  A    between atoms: _354  and  _355
REMARK  140  A    between atoms: _354  and  _357
REMARK  141  A    between atoms: _357  and  _358
REMARK  142  A    between atoms: _361  and  _363
REMARK  143  A    between atoms: _363  and  _364
REMARK  144  A    between atoms: _363  and  _366
REMARK  145  A    between atoms: _366  and  _367
REMARK  146  A    between atoms: _372  and  _374
REMARK  147  A    between atoms: _374  and  _375
REMARK  148  A    between atoms: _374  and  _377
REMARK  149  A    between atoms: _377  and  _378
REMARK  150  A    between atoms: _388  and  _390
REMARK  151  A    between atoms: _390  and  _391
REMARK  152  A    between atoms: _390  and  _393
REMARK  153  A    between atoms: _393  and  _394
REMARK  154  A    between atoms: _400  and  _402
REMARK  155  A    between atoms: _402  and  _403
REMARK  156  A    between atoms: _402  and  _405
REMARK  157  A    between atoms: _405  and  _406
REMARK  158  A    between atoms: _409  and  _411
REMARK  159  A    between atoms: _411  and  _412
REMARK  160  A    between atoms: _411  and  _414
REMARK  161  A    between atoms: _414  and  _415
REMARK  162  A    between atoms: _418  and  _420
REMARK  163  A    between atoms: _420  and  _421
REMARK  164  A    between atoms: _420  and  _423
REMARK  165  A    between atoms: _423  and  _424
REMARK  166  A    between atoms: _424  and  _425
REMARK  167  A    between atoms: _425  and  _426
REMARK  168  A    between atoms: _435  and  _437
REMARK  169  A    between atoms: _437  and  _438
REMARK  170  A    between atoms: _437  and  _440
REMARK  171  A    between atoms: _440  and  _441
REMARK  172  A    between atoms: _446  and  _448
REMARK  173  A    between atoms: _448  and  _449
REMARK  174  A    between atoms: _448  and  _451
REMARK  175  A    between atoms: _451  and  _452
REMARK  176  A    between atoms: _452  and  _453
REMARK  177  A    between atoms: _453  and  _454
REMARK  178  A    between atoms: _463  and  _465
REMARK  179  A    between atoms: _465  and  _466
REMARK  180  A    between atoms: _469  and  _471
REMARK  181  A    between atoms: _471  and  _472
REMARK  182  A    between atoms: _474  and  _476
REMARK  183  A    between atoms: _476  and  _477
REMARK  184  A    between atoms: _476  and  _479
REMARK  185  A    between atoms: _479  and  _480
REMARK  186  A    between atoms: _490  and  _492
REMARK  187  A    between atoms: _492  and  _493
REMARK  188  A    between atoms: _492  and  _495
REMARK  189  A    between atoms: _495  and  _496
REMARK  190  A    between atoms: _497  and  _499
REMARK  191  A    between atoms: _499  and  _500
REMARK  192  A    between atoms: _503  and  _505
REMARK  193  A    between atoms: _505  and  _506
REMARK  194  A    between atoms: _505  and  _508
REMARK  195  A    between atoms: _508  and  _509
REMARK  196  A    between atoms: _512  and  _514
REMARK  197  A    between atoms: _514  and  _515
REMARK  198  A    between atoms: _514  and  _517
REMARK  199  A    between atoms: _517  and  _518
REMARK  200  A    between atoms: _523  and  _524
REMARK  201  A    between atoms: _526  and  _528
REMARK  202  A    between atoms: _528  and  _529
REMARK  203  A    between atoms: _528  and  _531
REMARK  204  A    between atoms: _531  and  _532
REMARK  205  A    between atoms: _534  and  _536
REMARK  206  A    between atoms: _536  and  _537
REMARK  207  A    between atoms: _536  and  _539
REMARK  208  A    between atoms: _539  and  _540
REMARK  209  A    between atoms: _546  and  _548
REMARK  210  A    between atoms: _548  and  _549
REMARK  211  A    between atoms: _548  and  _551
REMARK  212  A    between atoms: _551  and  _552
REMARK  213  A    between atoms: _555  and  _557
REMARK  214  A    between atoms: _557  and  _558
REMARK  215  A    between atoms: _557  and  _560
REMARK  216  A    between atoms: _560  and  _561
REMARK  217  A    between atoms: _563  and  _565
REMARK  218  A    between atoms: _565  and  _566
REMARK  219  A    between atoms: _565  and  _568
REMARK  220  A    between atoms: _568  and  _569
REMARK  221  A    between atoms: _574  and  _576
REMARK  222  A    between atoms: _576  and  _577
REMARK  223  A    between atoms: _576  and  _579
REMARK  224  A    between atoms: _579  and  _580
REMARK  225  A    between atoms: _585  and  _587
REMARK  226  A    between atoms: _587  and  _588
REMARK  227  A    between atoms: _587  and  _590
REMARK  228  A    between atoms: _590  and  _591
REMARK  229  A    between atoms: _594  and  _596
REMARK  230  A    between atoms: _596  and  _597
REMARK  231  A    between atoms: _600  and  _602
REMARK  232  A    between atoms: _602  and  _603
REMARK  233  A    between atoms: _602  and  _605
REMARK  234  A    between atoms: _605  and  _606
REMARK  235  A    between atoms: _611  and  _612
REMARK  236  A    between atoms: _614  and  _616
REMARK  237  A    between atoms: _616  and  _617
REMARK  238  A    between atoms: _616  and  _619
REMARK  239  A    between atoms: _619  and  _620
REMARK  240  A    between atoms: _625  and  _626
REMARK  241  A    between atoms: _628  and  _630
REMARK  242  A    between atoms: _630  and  _631
REMARK  243  A    between atoms: _630  and  _633
REMARK  244  A    between atoms: _636  and  _638
REMARK  245  A    between atoms: _638  and  _639
REMARK  246  A    between atoms: _638  and  _641
REMARK  247  A    between atoms: _641  and  _642
REMARK  248  A    between atoms: _647  and  _649
REMARK  249  A    between atoms: _649  and  _650
REMARK  250  A    between atoms: _653  and  _655
REMARK  251  A    between atoms: _655  and  _656
REMARK  252  A    between atoms: _655  and  _658
REMARK  253  A    between atoms: _658  and  _659
REMARK  254  A    between atoms: _659  and  _660
REMARK  255  A    between atoms: _660  and  _661
REMARK  256  A    between atoms: _670  and  _672
REMARK  257  A    between atoms: _672  and  _673
REMARK  258  A    between atoms: _672  and  _675
REMARK  259  A    between atoms: _675  and  _676
REMARK  260  A    between atoms: _679  and  _681
REMARK  261  A    between atoms: _681  and  _682
REMARK  262  A    between atoms: _681  and  _684
REMARK  263  A    between atoms: _684  and  _685
REMARK  264  A    between atoms: _688  and  _690
REMARK  265  A    between atoms: _690  and  _691
REMARK  266  A    between atoms: _690  and  _693
REMARK  267  A    between atoms: _693  and  _694
REMARK  268  A    between atoms: _724  and  _725
REMARK  269  A    between atoms: _725  and  _731
REMARK                            x       y       z     vdW  Elec       q    Type
REMARK                         _______ _______ _______ _____ _____    ______ ____
ROOT
ATOM      1  O   HOH     1      10.289  28.815  16.068  0.00  0.00    +0.000 OA
ENDROOT
TORSDOF 0
REMARK  Name = ../refined-set-2016/1b3h/1b3h_pocket.pdb
REMARK  269 active torsions:
REMARK  status: ('A' for Active; 'I' for Inactive)
REMARK    1  A    between atoms: _1  and  _3
REMARK    2  A    between atoms: _3  and  _4
REMARK    3  A    between atoms: _3  and  _6
REMARK    4  A    between atoms: _6  and  _7
REMARK    5  A    between atoms: _12  and  _14
REMARK    6  A    between atoms: _14  and  _15
REMARK    7  A    between atoms: _17  and  _19
REMARK    8  A    between atoms: _19  and  _20
REMARK    9  A    between atoms: _19  and  _22
REMARK   10  A    between atoms: _22  and  _23
REMARK   11  A    between atoms: _25  and  _27
REMARK   12  A    between atoms: _27  and  _28
REMARK   13  A    between atoms: _27  and  _30
REMARK   14  A    between atoms: _30  and  _31
REMARK   15  A    between atoms: _31  and  _32
REMARK   16  A    between atoms: _37  and  _39
REMARK   17  A    between atoms: _39  and  _40
REMARK   18  A    between atoms: _39  and  _42
REMARK   19  A    between atoms: _42  and  _43
REMARK   20  A    between atoms: _46  and  _48
REMARK   21  A    between atoms: _48  and  _49
REMARK   22  A    between atoms: _48  and  _51
REMARK   23  A    between atoms: _51  and  _52
REMARK   24  A    between atoms: _52  and  _53
REMARK   25  A    between atoms: _56  and  _58
REMARK   26  A    between atoms: _58  and  _59
REMARK   27  A    between atoms: _61  and  _63
REMARK   28  A    between atoms: _63  and  _64
REMARK   29  A    between atoms: _63  and  _66
REMARK   30  A    between atoms: _70  and  _71
REMARK   31  A    between atoms: _76  and  _78
REMARK   32  A    between atoms: _78  and  _79
REMARK   33  A    between atoms: _78  and  _81
REMARK   34  A    between atoms: _81  and  _82
REMARK   35  A    between atoms: _82  and  _83
REMARK   36  A    between atoms: _86  and  _88
REMARK   37  A    between atoms: _88  and  _89
REMARK   38  A    between atoms: _88  and  _91
REMARK   39  A    between atoms: _91  and  _92
REMARK   40  A    between atoms: _94  and  _96
REMARK   41  A    between atoms: _96  and  _97
REMARK   42  A    between atoms: _96  and  _99
REMARK   43  A    between atoms: _99  and  _100
REMARK   44  A    between atoms: _105  and  _107
REMARK   45  A    between atoms: _107  and  _108
REMARK   46  A    between atoms: _107  and  _110
REMARK   47  A    between atoms: _110  and  _111
REMARK   48  A    between atoms: _111  and  _112
REMARK   49  A    between atoms: _112  and  _113
REMARK   50  A    between atoms: _123  and  _124
REMARK   51  A    between atoms: _129  and  _131
REMARK   52  A    between atoms: _131  and  _132
REMARK   53  A    between atoms: _131  and  _134
REMARK   54  A    between atoms: _134  and  _135
REMARK   55  A    between atoms: _140  and  _141
REMARK   56  A    between atoms: _143  and  _145
REMARK   57  A    between atoms: _145  and  _146
REMARK   58  A    between atoms: _145  and  _148
REMARK   59  A    between atoms: _148  and  _149
REMARK   60  A    between atoms: _154  and  _155
REMARK   61  A    between atoms: _157  and  _159
REMARK   62  A    between atoms: _159  and  _160
REMARK   63  A    between atoms: _159  and  _162
REMARK   64  A    between atoms: _162  and  _163
REMARK   65  A    between atoms: _168  and  _169
REMARK   66  A    between atoms: _171  and  _173
REMARK   67  A    between atoms: _173  and  _174
REMARK   68  A    between atoms: _173  and  _176
REMARK   69  A    between atoms: _179  and  _181
REMARK   70  A    between atoms: _181  and  _182
REMARK   71  A    between atoms: _181  and  _184
REMARK   72  A    between atoms: _184  and  _185
REMARK   73  A    between atoms: _191  and  _192
REMARK   74  A    between atoms: _197  and  _199
REMARK   75  A    between atoms: _199  and  _200
REMARK   76  A    between atoms: _199  and  _202
REMARK   77  A    between atoms: _202  and  _203
REMARK   78  A    between atoms: _205  and  _207
REMARK   79  A    between atoms: _207  and  _208
REMARK   80  A    between atoms: _207  and  _210
REMARK   81  A    between atoms: _210  and  _211
REMARK   82  A    between atoms: _216  and  _217
REMARK   83  A    between atoms: _219  and  _221
REMARK   84  A    between atoms: _221  and  _222
REMARK   85  A    between atoms: _221  and  _224
REMARK   86  A    between atoms: _224  and  _225
REMARK   87  A    between atoms: _230  and  _232
REMARK   88  A    between atoms: _232  and  _233
REMARK   89  A    between atoms: _232  and  _235
REMARK   90  A    between atoms: _235  and  _236
REMARK   91  A    between atoms: _241  and  _243
REMARK   92  A    between atoms: _243  and  _244
REMARK   93  A    between atoms: _243  and  _246
REMARK   94  A    between atoms: _246  and  _247
REMARK   95  A    between atoms: _247  and  _248
REMARK   96  A    between atoms: _250  and  _252
REMARK   97  A    between atoms: _252  and  _253
REMARK   98  A    between atoms: _252  and  _255
REMARK   99  A    between atoms: _255  and  _256
REMARK  100  A    between atoms: _261  and  _262
REMARK  101  A    between atoms: _264  and  _266
REMARK  102  A    between atoms: _266  and  _267
REMARK  103  A    between atoms: _266  and  _269
REMARK  104  A    between atoms: _269  and  _270
REMARK  105  A    between atoms: _273  and  _275
REMARK  106  A    between atoms: _275  and  _276
REMARK  107  A    between atoms: _275  and  _278
REMARK  108  A    between atoms: _278  and  _279
REMARK  109  A    between atoms: _279  and  _496
REMARK  110  A    between atoms: _280  and  _282
REMARK  111  A    between atoms: _282  and  _283
REMARK  112  A    between atoms: _282  and  _285
REMARK  113  A    between atoms: _285  and  _286
REMARK  114  A    between atoms: _289  and  _291
REMARK  115  A    between atoms: _291  and  _292
REMARK  116  A    between atoms: _291  and  _294
REMARK  117  A    between atoms: _294  and  _295
REMARK  118  A    between atoms: _300  and  _301
REMARK  119  A    between atoms: _303  and  _305
REMARK  120  A    between atoms: _305  and  _306
REMARK  121  A    between atoms: _305  and  _308
REMARK  122  A    between atoms: _308  and  _309
REMARK  123  A    between atoms: _314  and  _315
REMARK  124  A    between atoms: _317  and  _319
REMARK  125  A    between atoms: _319  and  _320
REMARK  126  A    between atoms: _319  and  _322
REMARK  127  A    between atoms: _322  and  _323
REMARK  128  A    between atoms: _323  and  _324
REMARK  129  A    between atoms: _327  and  _329
REMARK  130  A    between atoms: _329  and  _330
REMARK  131  A    between atoms: _329  and  _332
REMARK  132  A    between atoms: _332  and  _333
REMARK  133  A    between atoms: _338  and  _339
REMARK  134  A    between atoms: _341  and  _343
REMARK  135  A    between atoms: _343  and  _344
REMARK  136  A    between atoms: _343  and  _346
REMARK  137  A    between atoms: _346  and  _347
REMARK  138  A    between atoms: _352  and  _354
REMARK  139  A    between atoms: _354  and  _355
REMARK  140  A    between atoms: _354  and  _357
REMARK  141  A    between atoms: _357  and  _358
REMARK  142  A    between atoms: _361  and  _363
REMARK  143  A    between atoms: _363  and  _364
REMARK  144  A    between atoms: _363  and  _366
REMARK  145  A    between atoms: _366  and  _367
REMARK  146  A    between atoms: _372  and  _374
REMARK  147  A    between atoms: _374  and  _375
REMARK  148  A    between atoms: _374  and  _377
REMARK  149  A    between atoms: _377  and  _378
REMARK  150  A    between atoms: _388  and  _390
REMARK  151  A    between atoms: _390  and  _391
REMARK  152  A    between atoms: _390  and  _393
REMARK  153  A    between atoms: _393  and  _394
REMARK  154  A    between atoms: _400  and  _402
REMARK  155  A    between atoms: _402  and  _403
REMARK  156  A    between atoms: _402  and  _405
REMARK  157  A    between atoms: _405  and  _406
REMARK  158  A    between atoms: _409  and  _411
REMARK  159  A    between atoms: _411  and  _412
REMARK  160  A    between atoms: _411  and  _414
REMARK  161  A    between atoms: _414  and  _415
REMARK  162  A    between atoms: _418  and  _420
REMARK  163  A    between atoms: _420  and  _421
REMARK  164  A    between atoms: _420  and  _423
REMARK  165  A    between atoms: _423  and  _424
REMARK  166  A    between atoms: _424  and  _425
REMARK  167  A    between atoms: _425  and  _426
REMARK  168  A    between atoms: _435  and  _437
REMARK  169  A    between atoms: _437  and  _438
REMARK  170  A    between atoms: _437  and  _440
REMARK  171  A    between atoms: _440  and  _441
REMARK  172  A    between atoms: _446  and  _448
REMARK  173  A    between atoms: _448  and  _449
REMARK  174  A    between atoms: _448  and  _451
REMARK  175  A    between atoms: _451  and  _452
REMARK  176  A    between atoms: _452  and  _453
REMARK  177  A    between atoms: _453  and  _454
REMARK  178  A    between atoms: _463  and  _465
REMARK  179  A    between atoms: _465  and  _466
REMARK  180  A    between atoms: _469  and  _471
REMARK  181  A    between atoms: _471  and  _472
REMARK  182  A    between atoms: _474  and  _476
REMARK  183  A    between atoms: _476  and  _477
REMARK  184  A    between atoms: _476  and  _479
REMARK  185  A    between atoms: _479  and  _480
REMARK  186  A    between atoms: _490  and  _492
REMARK  187  A    between atoms: _492  and  _493
REMARK  188  A    between atoms: _492  and  _495
REMARK  189  A    between atoms: _495  and  _496
REMARK  190  A    between atoms: _497  and  _499
REMARK  191  A    between atoms: _499  and  _500
REMARK  192  A    between atoms: _503  and  _505
REMARK  193  A    between atoms: _505  and  _506
REMARK  194  A    between atoms: _505  and  _508
REMARK  195  A    between atoms: _508  and  _509
REMARK  196  A    between atoms: _512  and  _514
REMARK  197  A    between atoms: _514  and  _515
REMARK  198  A    between atoms: _514  and  _517
REMARK  199  A    between atoms: _517  and  _518
REMARK  200  A    between atoms: _523  and  _524
REMARK  201  A    between atoms: _526  and  _528
REMARK  202  A    between atoms: _528  and  _529
REMARK  203  A    between atoms: _528  and  _531
REMARK  204  A    between atoms: _531  and  _532
REMARK  205  A    between atoms: _534  and  _536
REMARK  206  A    between atoms: _536  and  _537
REMARK  207  A    between atoms: _536  and  _539
REMARK  208  A    between atoms: _539  and  _540
REMARK  209  A    between atoms: _546  and  _548
REMARK  210  A    between atoms: _548  and  _549
REMARK  211  A    between atoms: _548  and  _551
REMARK  212  A    between atoms: _551  and  _552
REMARK  213  A    between atoms: _555  and  _557
REMARK  214  A    between atoms: _557  and  _558
REMARK  215  A    between atoms: _557  and  _560
REMARK  216  A    between atoms: _560  and  _561
REMARK  217  A    between atoms: _563  and  _565
REMARK  218  A    between atoms: _565  and  _566
REMARK  219  A    between atoms: _565  and  _568
REMARK  220  A    between atoms: _568  and  _569
REMARK  221  A    between atoms: _574  and  _576
REMARK  222  A    between atoms: _576  and  _577
REMARK  223  A    between atoms: _576  and  _579
REMARK  224  A    between atoms: _579  and  _580
REMARK  225  A    between atoms: _585  and  _587
REMARK  226  A    between atoms: _587  and  _588
REMARK  227  A    between atoms: _587  and  _590
REMARK  228  A    between atoms: _590  and  _591
REMARK  229  A    between atoms: _594  and  _596
REMARK  230  A    between atoms: _596  and  _597
REMARK  231  A    between atoms: _600  and  _602
REMARK  232  A    between atoms: _602  and  _603
REMARK  233  A    between atoms: _602  and  _605
REMARK  234  A    between atoms: _605  and  _606
REMARK  235  A    between atoms: _611  and  _612
REMARK  236  A    between atoms: _614  and  _616
REMARK  237  A    between atoms: _616  and  _617
REMARK  238  A    between atoms: _616  and  _619
REMARK  239  A    between atoms: _619  and  _620
REMARK  240  A    between atoms: _625  and  _626
REMARK  241  A    between atoms: _628  and  _630
REMARK  242  A    between atoms: _630  and  _631
REMARK  243  A    between atoms: _630  and  _633
REMARK  244  A    between atoms: _636  and  _638
REMARK  245  A    between atoms: _638  and  _639
REMARK  246  A    between atoms: _638  and  _641
REMARK  247  A    between atoms: _641  and  _642
REMARK  248  A    between atoms: _647  and  _649
REMARK  249  A    between atoms: _649  and  _650
REMARK  250  A    between atoms: _653  and  _655
REMARK  251  A    between atoms: _655  and  _656
REMARK  252  A    between atoms: _655  and  _658
REMARK  253  A    between atoms: _658  and  _659
REMARK  254  A    between atoms: _659  and  _660
REMARK  255  A    between atoms: _660  and  _661
REMARK  256  A    between atoms: _670  and  _672
REMARK  257  A    between atoms: _672  and  _673
REMARK  258  A    between atoms: _672  and  _675
REMARK  259  A    between atoms: _675  and  _676
REMARK  260  A    between atoms: _679  and  _681
REMARK  261  A    between atoms: _681  and  _682
REMARK  262  A    between atoms: _681  and  _684
REMARK  263  A    between atoms: _684  and  _685
REMARK  264  A    between atoms: _688  and  _690
REMARK  265  A    between atoms: _690  and  _691
REMARK  266  A    between atoms: _690  and  _693
REMARK  267  A    between atoms: _693  and  _694
REMARK  268  A    between atoms: _724  and  _725
REMARK  269  A    between atoms: _725  and  _731
REMARK                            x       y       z     vdW  Elec       q    Type
REMARK                         _______ _______ _______ _____ _____    ______ ____
ROOT
ATOM      1  O   HOH     1      10.524  15.829   4.700  0.00  0.00    +0.000 OA
ENDROOT
TORSDOF 0
REMARK  Name = ../refined-set-2016/1b3h/1b3h_pocket.pdb
REMARK  269 active torsions:
REMARK  status: ('A' for Active; 'I' for Inactive)
REMARK    1  A    between atoms: _1  and  _3
REMARK    2  A    between atoms: _3  and  _4
REMARK    3  A    between atoms: _3  and  _6
REMARK    4  A    between atoms: _6  and  _7
REMARK    5  A    between atoms: _12  and  _14
REMARK    6  A    between atoms: _14  and  _15
REMARK    7  A    between atoms: _17  and  _19
REMARK    8  A    between atoms: _19  and  _20
REMARK    9  A    between atoms: _19  and  _22
REMARK   10  A    between atoms: _22  and  _23
REMARK   11  A    between atoms: _25  and  _27
REMARK   12  A    between atoms: _27  and  _28
REMARK   13  A    between atoms: _27  and  _30
REMARK   14  A    between atoms: _30  and  _31
REMARK   15  A    between atoms: _31  and  _32
REMARK   16  A    between atoms: _37  and  _39
REMARK   17  A    between atoms: _39  and  _40
REMARK   18  A    between atoms: _39  and  _42
REMARK   19  A    between atoms: _42  and  _43
REMARK   20  A    between atoms: _46  and  _48
REMARK   21  A    between atoms: _48  and  _49
REMARK   22  A    between atoms: _48  and  _51
REMARK   23  A    between atoms: _51  and  _52
REMARK   24  A    between atoms: _52  and  _53
REMARK   25  A    between atoms: _56  and  _58
REMARK   26  A    between atoms: _58  and  _59
REMARK   27  A    between atoms: _61  and  _63
REMARK   28  A    between atoms: _63  and  _64
REMARK   29  A    between atoms: _63  and  _66
REMARK   30  A    between atoms: _70  and  _71
REMARK   31  A    between atoms: _76  and  _78
REMARK   32  A    between atoms: _78  and  _79
REMARK   33  A    between atoms: _78  and  _81
REMARK   34  A    between atoms: _81  and  _82
REMARK   35  A    between atoms: _82  and  _83
REMARK   36  A    between atoms: _86  and  _88
REMARK   37  A    between atoms: _88  and  _89
REMARK   38  A    between atoms: _88  and  _91
REMARK   39  A    between atoms: _91  and  _92
REMARK   40  A    between atoms: _94  and  _96
REMARK   41  A    between atoms: _96  and  _97
REMARK   42  A    between atoms: _96  and  _99
REMARK   43  A    between atoms: _99  and  _100
REMARK   44  A    between atoms: _105  and  _107
REMARK   45  A    between atoms: _107  and  _108
REMARK   46  A    between atoms: _107  and  _110
REMARK   47  A    between atoms: _110  and  _111
REMARK   48  A    between atoms: _111  and  _112
REMARK   49  A    between atoms: _112  and  _113
REMARK   50  A    between atoms: _123  and  _124
REMARK   51  A    between atoms: _129  and  _131
REMARK   52  A    between atoms: _131  and  _132
REMARK   53  A    between atoms: _131  and  _134
REMARK   54  A    between atoms: _134  and  _135
REMARK   55  A    between atoms: _140  and  _141
REMARK   56  A    between atoms: _143  and  _145
REMARK   57  A    between atoms: _145  and  _146
REMARK   58  A    between atoms: _145  and  _148
REMARK   59  A    between atoms: _148  and  _149
REMARK   60  A    between atoms: _154  and  _155
REMARK   61  A    between atoms: _157  and  _159
REMARK   62  A    between atoms: _159  and  _160
REMARK   63  A    between atoms: _159  and  _162
REMARK   64  A    between atoms: _162  and  _163
REMARK   65  A    between atoms: _168  and  _169
REMARK   66  A    between atoms: _171  and  _173
REMARK   67  A    between atoms: _173  and  _174
REMARK   68  A    between atoms: _173  and  _176
REMARK   69  A    between atoms: _179  and  _181
REMARK   70  A    between atoms: _181  and  _182
REMARK   71  A    between atoms: _181  and  _184
REMARK   72  A    between atoms: _184  and  _185
REMARK   73  A    between atoms: _191  and  _192
REMARK   74  A    between atoms: _197  and  _199
REMARK   75  A    between atoms: _199  and  _200
REMARK   76  A    between atoms: _199  and  _202
REMARK   77  A    between atoms: _202  and  _203
REMARK   78  A    between atoms: _205  and  _207
REMARK   79  A    between atoms: _207  and  _208
REMARK   80  A    between atoms: _207  and  _210
REMARK   81  A    between atoms: _210  and  _211
REMARK   82  A    between atoms: _216  and  _217
REMARK   83  A    between atoms: _219  and  _221
REMARK   84  A    between atoms: _221  and  _222
REMARK   85  A    between atoms: _221  and  _224
REMARK   86  A    between atoms: _224  and  _225
REMARK   87  A    between atoms: _230  and  _232
REMARK   88  A    between atoms: _232  and  _233
REMARK   89  A    between atoms: _232  and  _235
REMARK   90  A    between atoms: _235  and  _236
REMARK   91  A    between atoms: _241  and  _243
REMARK   92  A    between atoms: _243  and  _244
REMARK   93  A    between atoms: _243  and  _246
REMARK   94  A    between atoms: _246  and  _247
REMARK   95  A    between atoms: _247  and  _248
REMARK   96  A    between atoms: _250  and  _252
REMARK   97  A    between atoms: _252  and  _253
REMARK   98  A    between atoms: _252  and  _255
REMARK   99  A    between atoms: _255  and  _256
REMARK  100  A    between atoms: _261  and  _262
REMARK  101  A    between atoms: _264  and  _266
REMARK  102  A    between atoms: _266  and  _267
REMARK  103  A    between atoms: _266  and  _269
REMARK  104  A    between atoms: _269  and  _270
REMARK  105  A    between atoms: _273  and  _275
REMARK  106  A    between atoms: _275  and  _276
REMARK  107  A    between atoms: _275  and  _278
REMARK  108  A    between atoms: _278  and  _279
REMARK  109  A    between atoms: _279  and  _496
REMARK  110  A    between atoms: _280  and  _282
REMARK  111  A    between atoms: _282  and  _283
REMARK  112  A    between atoms: _282  and  _285
REMARK  113  A    between atoms: _285  and  _286
REMARK  114  A    between atoms: _289  and  _291
REMARK  115  A    between atoms: _291  and  _292
REMARK  116  A    between atoms: _291  and  _294
REMARK  117  A    between atoms: _294  and  _295
REMARK  118  A    between atoms: _300  and  _301
REMARK  119  A    between atoms: _303  and  _305
REMARK  120  A    between atoms: _305  and  _306
REMARK  121  A    between atoms: _305  and  _308
REMARK  122  A    between atoms: _308  and  _309
REMARK  123  A    between atoms: _314  and  _315
REMARK  124  A    between atoms: _317  and  _319
REMARK  125  A    between atoms: _319  and  _320
REMARK  126  A    between atoms: _319  and  _322
REMARK  127  A    between atoms: _322  and  _323
REMARK  128  A    between atoms: _323  and  _324
REMARK  129  A    between atoms: _327  and  _329
REMARK  130  A    between atoms: _329  and  _330
REMARK  131  A    between atoms: _329  and  _332
REMARK  132  A    between atoms: _332  and  _333
REMARK  133  A    between atoms: _338  and  _339
REMARK  134  A    between atoms: _341  and  _343
REMARK  135  A    between atoms: _343  and  _344
REMARK  136  A    between atoms: _343  and  _346
REMARK  137  A    between atoms: _346  and  _347
REMARK  138  A    between atoms: _352  and  _354
REMARK  139  A    between atoms: _354  and  _355
REMARK  140  A    between atoms: _354  and  _357
REMARK  141  A    between atoms: _357  and  _358
REMARK  142  A    between atoms: _361  and  _363
REMARK  143  A    between atoms: _363  and  _364
REMARK  144  A    between atoms: _363  and  _366
REMARK  145  A    between atoms: _366  and  _367
REMARK  146  A    between atoms: _372  and  _374
REMARK  147  A    between atoms: _374  and  _375
REMARK  148  A    between atoms: _374  and  _377
REMARK  149  A    between atoms: _377  and  _378
REMARK  150  A    between atoms: _388  and  _390
REMARK  151  A    between atoms: _390  and  _391
REMARK  152  A    between atoms: _390  and  _393
REMARK  153  A    between atoms: _393  and  _394
REMARK  154  A    between atoms: _400  and  _402
REMARK  155  A    between atoms: _402  and  _403
REMARK  156  A    between atoms: _402  and  _405
REMARK  157  A    between atoms: _405  and  _406
REMARK  158  A    between atoms: _409  and  _411
REMARK  159  A    between atoms: _411  and  _412
REMARK  160  A    between atoms: _411  and  _414
REMARK  161  A    between atoms: _414  and  _415
REMARK  162  A    between atoms: _418  and  _420
REMARK  163  A    between atoms: _420  and  _421
REMARK  164  A    between atoms: _420  and  _423
REMARK  165  A    between atoms: _423  and  _424
REMARK  166  A    between atoms: _424  and  _425
REMARK  167  A    between atoms: _425  and  _426
REMARK  168  A    between atoms: _435  and  _437
REMARK  169  A    between atoms: _437  and  _438
REMARK  170  A    between atoms: _437  and  _440
REMARK  171  A    between atoms: _440  and  _441
REMARK  172  A    between atoms: _446  and  _448
REMARK  173  A    between atoms: _448  and  _449
REMARK  174  A    between atoms: _448  and  _451
REMARK  175  A    between atoms: _451  and  _452
REMARK  176  A    between atoms: _452  and  _453
REMARK  177  A    between atoms: _453  and  _454
REMARK  178  A    between atoms: _463  and  _465
REMARK  179  A    between atoms: _465  and  _466
REMARK  180  A    between atoms: _469  and  _471
REMARK  181  A    between atoms: _471  and  _472
REMARK  182  A    between atoms: _474  and  _476
REMARK  183  A    between atoms: _476  and  _477
REMARK  184  A    between atoms: _476  and  _479
REMARK  185  A    between atoms: _479  and  _480
REMARK  186  A    between atoms: _490  and  _492
REMARK  187  A    between atoms: _492  and  _493
REMARK  188  A    between atoms: _492  and  _495
REMARK  189  A    between atoms: _495  and  _496
REMARK  190  A    between atoms: _497  and  _499
REMARK  191  A    between atoms: _499  and  _500
REMARK  192  A    between atoms: _503  and  _505
REMARK  193  A    between atoms: _505  and  _506
REMARK  194  A    between atoms: _505  and  _508
REMARK  195  A    between atoms: _508  and  _509
REMARK  196  A    between atoms: _512  and  _514
REMARK  197  A    between atoms: _514  and  _515
REMARK  198  A    between atoms: _514  and  _517
REMARK  199  A    between atoms: _517  and  _518
REMARK  200  A    between atoms: _523  and  _524
REMARK  201  A    between atoms: _526  and  _528
REMARK  202  A    between atoms: _528  and  _529
REMARK  203  A    between atoms: _528  and  _531
REMARK  204  A    between atoms: _531  and  _532
REMARK  205  A    between atoms: _534  and  _536
REMARK  206  A    between atoms: _536  and  _537
REMARK  207  A    between atoms: _536  and  _539
REMARK  208  A    between atoms: _539  and  _540
REMARK  209  A    between atoms: _546  and  _548
REMARK  210  A    between atoms: _548  and  _549
REMARK  211  A    between atoms: _548  and  _551
REMARK  212  A    between atoms: _551  and  _552
REMARK  213  A    between atoms: _555  and  _557
REMARK  214  A    between atoms: _557  and  _558
REMARK  215  A    between atoms: _557  and  _560
REMARK  216  A    between atoms: _560  and  _561
REMARK  217  A    between atoms: _563  and  _565
REMARK  218  A    between atoms: _565  and  _566
REMARK  219  A    between atoms: _565  and  _568
REMARK  220  A    between atoms: _568  and  _569
REMARK  221  A    between atoms: _574  and  _576
REMARK  222  A    between atoms: _576  and  _577
REMARK  223  A    between atoms: _576  and  _579
REMARK  224  A    between atoms: _579  and  _580
REMARK  225  A    between atoms: _585  and  _587
REMARK  226  A    between atoms: _587  and  _588
REMARK  227  A    between atoms: _587  and  _590
REMARK  228  A    between atoms: _590  and  _591
REMARK  229  A    between atoms: _594  and  _596
REMARK  230  A    between atoms: _596  and  _597
REMARK  231  A    between atoms: _600  and  _602
REMARK  232  A    between atoms: _602  and  _603
REMARK  233  A    between atoms: _602  and  _605
REMARK  234  A    between atoms: _605  and  _606
REMARK  235  A    between atoms: _611  and  _612
REMARK  236  A    between atoms: _614  and  _616
REMARK  237  A    between atoms: _616  and  _617
REMARK  238  A    between atoms: _616  and  _619
REMARK  239  A    between atoms: _619  and  _620
REMARK  240  A    between atoms: _625  and  _626
REMARK  241  A    between atoms: _628  and  _630
REMARK  242  A    between atoms: _630  and  _631
REMARK  243  A    between atoms: _630  and  _633
REMARK  244  A    between atoms: _636  and  _638
REMARK  245  A    between atoms: _638  and  _639
REMARK  246  A    between atoms: _638  and  _641
REMARK  247  A    between atoms: _641  and  _642
REMARK  248  A    between atoms: _647  and  _649
REMARK  249  A    between atoms: _649  and  _650
REMARK  250  A    between atoms: _653  and  _655
REMARK  251  A    between atoms: _655  and  _656
REMARK  252  A    between atoms: _655  and  _658
REMARK  253  A    between atoms: _658  and  _659
REMARK  254  A    between atoms: _659  and  _660
REMARK  255  A    between atoms: _660  and  _661
REMARK  256  A    between atoms: _670  and  _672
REMARK  257  A    between atoms: _672  and  _673
REMARK  258  A    between atoms: _672  and  _675
REMARK  259  A    between atoms: _675  and  _676
REMARK  260  A    between atoms: _679  and  _681
REMARK  261  A    between atoms: _681  and  _682
REMARK  262  A    between atoms: _681  and  _684
REMARK  263  A    between atoms: _684  and  _685
REMARK  264  A    between atoms: _688  and  _690
REMARK  265  A    between atoms: _690  and  _691
REMARK  266  A    between atoms: _690  and  _693
REMARK  267  A    between atoms: _693  and  _694
REMARK  268  A    between atoms: _724  and  _725
REMARK  269  A    between atoms: _725  and  _731
REMARK                            x       y       z     vdW  Elec       q    Type
REMARK                         _______ _______ _______ _____ _____    ______ ____
ROOT
ATOM      1  O   HOH     1      -7.918  16.324  16.742  0.00  0.00    +0.000 OA
ENDROOT
TORSDOF 0
REMARK  Name = ../refined-set-2016/1b3h/1b3h_pocket.pdb
REMARK  269 active torsions:
REMARK  status: ('A' for Active; 'I' for Inactive)
REMARK    1  A    between atoms: _1  and  _3
REMARK    2  A    between atoms: _3  and  _4
REMARK    3  A    between atoms: _3  and  _6
REMARK    4  A    between atoms: _6  and  _7
REMARK    5  A    between atoms: _12  and  _14
REMARK    6  A    between atoms: _14  and  _15
REMARK    7  A    between atoms: _17  and  _19
REMARK    8  A    between atoms: _19  and  _20
REMARK    9  A    between atoms: _19  and  _22
REMARK   10  A    between atoms: _22  and  _23
REMARK   11  A    between atoms: _25  and  _27
REMARK   12  A    between atoms: _27  and  _28
REMARK   13  A    between atoms: _27  and  _30
REMARK   14  A    between atoms: _30  and  _31
REMARK   15  A    between atoms: _31  and  _32
REMARK   16  A    between atoms: _37  and  _39
REMARK   17  A    between atoms: _39  and  _40
REMARK   18  A    between atoms: _39  and  _42
REMARK   19  A    between atoms: _42  and  _43
REMARK   20  A    between atoms: _46  and  _48
REMARK   21  A    between atoms: _48  and  _49
REMARK   22  A    between atoms: _48  and  _51
REMARK   23  A    between atoms: _51  and  _52
REMARK   24  A    between atoms: _52  and  _53
REMARK   25  A    between atoms: _56  and  _58
REMARK   26  A    between atoms: _58  and  _59
REMARK   27  A    between atoms: _61  and  _63
REMARK   28  A    between atoms: _63  and  _64
REMARK   29  A    between atoms: _63  and  _66
REMARK   30  A    between atoms: _70  and  _71
REMARK   31  A    between atoms: _76  and  _78
REMARK   32  A    between atoms: _78  and  _79
REMARK   33  A    between atoms: _78  and  _81
REMARK   34  A    between atoms: _81  and  _82
REMARK   35  A    between atoms: _82  and  _83
REMARK   36  A    between atoms: _86  and  _88
REMARK   37  A    between atoms: _88  and  _89
REMARK   38  A    between atoms: _88  and  _91
REMARK   39  A    between atoms: _91  and  _92
REMARK   40  A    between atoms: _94  and  _96
REMARK   41  A    between atoms: _96  and  _97
REMARK   42  A    between atoms: _96  and  _99
REMARK   43  A    between atoms: _99  and  _100
REMARK   44  A    between atoms: _105  and  _107
REMARK   45  A    between atoms: _107  and  _108
REMARK   46  A    between atoms: _107  and  _110
REMARK   47  A    between atoms: _110  and  _111
REMARK   48  A    between atoms: _111  and  _112
REMARK   49  A    between atoms: _112  and  _113
REMARK   50  A    between atoms: _123  and  _124
REMARK   51  A    between atoms: _129  and  _131
REMARK   52  A    between atoms: _131  and  _132
REMARK   53  A    between atoms: _131  and  _134
REMARK   54  A    between atoms: _134  and  _135
REMARK   55  A    between atoms: _140  and  _141
REMARK   56  A    between atoms: _143  and  _145
REMARK   57  A    between atoms: _145  and  _146
REMARK   58  A    between atoms: _145  and  _148
REMARK   59  A    between atoms: _148  and  _149
REMARK   60  A    between atoms: _154  and  _155
REMARK   61  A    between atoms: _157  and  _159
REMARK   62  A    between atoms: _159  and  _160
REMARK   63  A    between atoms: _159  and  _162
REMARK   64  A    between atoms: _162  and  _163
REMARK   65  A    between atoms: _168  and  _169
REMARK   66  A    between atoms: _171  and  _173
REMARK   67  A    between atoms: _173  and  _174
REMARK   68  A    between atoms: _173  and  _176
REMARK   69  A    between atoms: _179  and  _181
REMARK   70  A    between atoms: _181  and  _182
REMARK   71  A    between atoms: _181  and  _184
REMARK   72  A    between atoms: _184  and  _185
REMARK   73  A    between atoms: _191  and  _192
REMARK   74  A    between atoms: _197  and  _199
REMARK   75  A    between atoms: _199  and  _200
REMARK   76  A    between atoms: _199  and  _202
REMARK   77  A    between atoms: _202  and  _203
REMARK   78  A    between atoms: _205  and  _207
REMARK   79  A    between atoms: _207  and  _208
REMARK   80  A    between atoms: _207  and  _210
REMARK   81  A    between atoms: _210  and  _211
REMARK   82  A    between atoms: _216  and  _217
REMARK   83  A    between atoms: _219  and  _221
REMARK   84  A    between atoms: _221  and  _222
REMARK   85  A    between atoms: _221  and  _224
REMARK   86  A    between atoms: _224  and  _225
REMARK   87  A    between atoms: _230  and  _232
REMARK   88  A    between atoms: _232  and  _233
REMARK   89  A    between atoms: _232  and  _235
REMARK   90  A    between atoms: _235  and  _236
REMARK   91  A    between atoms: _241  and  _243
REMARK   92  A    between atoms: _243  and  _244
REMARK   93  A    between atoms: _243  and  _246
REMARK   94  A    between atoms: _246  and  _247
REMARK   95  A    between atoms: _247  and  _248
REMARK   96  A    between atoms: _250  and  _252
REMARK   97  A    between atoms: _252  and  _253
REMARK   98  A    between atoms: _252  and  _255
REMARK   99  A    between atoms: _255  and  _256
REMARK  100  A    between atoms: _261  and  _262
REMARK  101  A    between atoms: _264  and  _266
REMARK  102  A    between atoms: _266  and  _267
REMARK  103  A    between atoms: _266  and  _269
REMARK  104  A    between atoms: _269  and  _270
REMARK  105  A    between atoms: _273  and  _275
REMARK  106  A    between atoms: _275  and  _276
REMARK  107  A    between atoms: _275  and  _278
REMARK  108  A    between atoms: _278  and  _279
REMARK  109  A    between atoms: _279  and  _496
REMARK  110  A    between atoms: _280  and  _282
REMARK  111  A    between atoms: _282  and  _283
REMARK  112  A    between atoms: _282  and  _285
REMARK  113  A    between atoms: _285  and  _286
REMARK  114  A    between atoms: _289  and  _291
REMARK  115  A    between atoms: _291  and  _292
REMARK  116  A    between atoms: _291  and  _294
REMARK  117  A    between atoms: _294  and  _295
REMARK  118  A    between atoms: _300  and  _301
REMARK  119  A    between atoms: _303  and  _305
REMARK  120  A    between atoms: _305  and  _306
REMARK  121  A    between atoms: _305  and  _308
REMARK  122  A    between atoms: _308  and  _309
REMARK  123  A    between atoms: _314  and  _315
REMARK  124  A    between atoms: _317  and  _319
REMARK  125  A    between atoms: _319  and  _320
REMARK  126  A    between atoms: _319  and  _322
REMARK  127  A    between atoms: _322  and  _323
REMARK  128  A    between atoms: _323  and  _324
REMARK  129  A    between atoms: _327  and  _329
REMARK  130  A    between atoms: _329  and  _330
REMARK  131  A    between atoms: _329  and  _332
REMARK  132  A    between atoms: _332  and  _333
REMARK  133  A    between atoms: _338  and  _339
REMARK  134  A    between atoms: _341  and  _343
REMARK  135  A    between atoms: _343  and  _344
REMARK  136  A    between atoms: _343  and  _346
REMARK  137  A    between atoms: _346  and  _347
REMARK  138  A    between atoms: _352  and  _354
REMARK  139  A    between atoms: _354  and  _355
REMARK  140  A    between atoms: _354  and  _357
REMARK  141  A    between atoms: _357  and  _358
REMARK  142  A    between atoms: _361  and  _363
REMARK  143  A    between atoms: _363  and  _364
REMARK  144  A    between atoms: _363  and  _366
REMARK  145  A    between atoms: _366  and  _367
REMARK  146  A    between atoms: _372  and  _374
REMARK  147  A    between atoms: _374  and  _375
REMARK  148  A    between atoms: _374  and  _377
REMARK  149  A    between atoms: _377  and  _378
REMARK  150  A    between atoms: _388  and  _390
REMARK  151  A    between atoms: _390  and  _391
REMARK  152  A    between atoms: _390  and  _393
REMARK  153  A    between atoms: _393  and  _394
REMARK  154  A    between atoms: _400  and  _402
REMARK  155  A    between atoms: _402  and  _403
REMARK  156  A    between atoms: _402  and  _405
REMARK  157  A    between atoms: _405  and  _406
REMARK  158  A    between atoms: _409  and  _411
REMARK  159  A    between atoms: _411  and  _412
REMARK  160  A    between atoms: _411  and  _414
REMARK  161  A    between atoms: _414  and  _415
REMARK  162  A    between atoms: _418  and  _420
REMARK  163  A    between atoms: _420  and  _421
REMARK  164  A    between atoms: _420  and  _423
REMARK  165  A    between atoms: _423  and  _424
REMARK  166  A    between atoms: _424  and  _425
REMARK  167  A    between atoms: _425  and  _426
REMARK  168  A    between atoms: _435  and  _437
REMARK  169  A    between atoms: _437  and  _438
REMARK  170  A    between atoms: _437  and  _440
REMARK  171  A    between atoms: _440  and  _441
REMARK  172  A    between atoms: _446  and  _448
REMARK  173  A    between atoms: _448  and  _449
REMARK  174  A    between atoms: _448  and  _451
REMARK  175  A    between atoms: _451  and  _452
REMARK  176  A    between atoms: _452  and  _453
REMARK  177  A    between atoms: _453  and  _454
REMARK  178  A    between atoms: _463  and  _465
REMARK  179  A    between atoms: _465  and  _466
REMARK  180  A    between atoms: _469  and  _471
REMARK  181  A    between atoms: _471  and  _472
REMARK  182  A    between atoms: _474  and  _476
REMARK  183  A    between atoms: _476  and  _477
REMARK  184  A    between atoms: _476  and  _479
REMARK  185  A    between atoms: _479  and  _480
REMARK  186  A    between atoms: _490  and  _492
REMARK  187  A    between atoms: _492  and  _493
REMARK  188  A    between atoms: _492  and  _495
REMARK  189  A    between atoms: _495  and  _496
REMARK  190  A    between atoms: _497  and  _499
REMARK  191  A    between atoms: _499  and  _500
REMARK  192  A    between atoms: _503  and  _505
REMARK  193  A    between atoms: _505  and  _506
REMARK  194  A    between atoms: _505  and  _508
REMARK  195  A    between atoms: _508  and  _509
REMARK  196  A    between atoms: _512  and  _514
REMARK  197  A    between atoms: _514  and  _515
REMARK  198  A    between atoms: _514  and  _517
REMARK  199  A    between atoms: _517  and  _518
REMARK  200  A    between atoms: _523  and  _524
REMARK  201  A    between atoms: _526  and  _528
REMARK  202  A    between atoms: _528  and  _529
REMARK  203  A    between atoms: _528  and  _531
REMARK  204  A    between atoms: _531  and  _532
REMARK  205  A    between atoms: _534  and  _536
REMARK  206  A    between atoms: _536  and  _537
REMARK  207  A    between atoms: _536  and  _539
REMARK  208  A    between atoms: _539  and  _540
REMARK  209  A    between atoms: _546  and  _548
REMARK  210  A    between atoms: _548  and  _549
REMARK  211  A    between atoms: _548  and  _551
REMARK  212  A    between atoms: _551  and  _552
REMARK  213  A    between atoms: _555  and  _557
REMARK  214  A    between atoms: _557  and  _558
REMARK  215  A    between atoms: _557  and  _560
REMARK  216  A    between atoms: _560  and  _561
REMARK  217  A    between atoms: _563  and  _565
REMARK  218  A    between atoms: _565  and  _566
REMARK  219  A    between atoms: _565  and  _568
REMARK  220  A    between atoms: _568  and  _569
REMARK  221  A    between atoms: _574  and  _576
REMARK  222  A    between atoms: _576  and  _577
REMARK  223  A    between atoms: _576  and  _579
REMARK  224  A    between atoms: _579  and  _580
REMARK  225  A    between atoms: _585  and  _587
REMARK  226  A    between atoms: _587  and  _588
REMARK  227  A    between atoms: _587  and  _590
REMARK  228  A    between atoms: _590  and  _591
REMARK  229  A    between atoms: _594  and  _596
REMARK  230  A    between atoms: _596  and  _597
REMARK  231  A    between atoms: _600  and  _602
REMARK  232  A    between atoms: _602  and  _603
REMARK  233  A    between atoms: _602  and  _605
REMARK  234  A    between atoms: _605  and  _606
REMARK  235  A    between atoms: _611  and  _612
REMARK  236  A    between atoms: _614  and  _616
REMARK  237  A    between atoms: _616  and  _617
REMARK  238  A    between atoms: _616  and  _619
REMARK  239  A    between atoms: _619  and  _620
REMARK  240  A    between atoms: _625  and  _626
REMARK  241  A    between atoms: _628  and  _630
REMARK  242  A    between atoms: _630  and  _631
REMARK  243  A    between atoms: _630  and  _633
REMARK  244  A    between atoms: _636  and  _638
REMARK  245  A    between atoms: _638  and  _639
REMARK  246  A    between atoms: _638  and  _641
REMARK  247  A    between atoms: _641  and  _642
REMARK  248  A    between atoms: _647  and  _649
REMARK  249  A    between atoms: _649  and  _650
REMARK  250  A    between atoms: _653  and  _655
REMARK  251  A    between atoms: _655  and  _656
REMARK  252  A    between atoms: _655  and  _658
REMARK  253  A    between atoms: _658  and  _659
REMARK  254  A    between atoms: _659  and  _660
REMARK  255  A    between atoms: _660  and  _661
REMARK  256  A    between atoms: _670  and  _672
REMARK  257  A    between atoms: _672  and  _673
REMARK  258  A    between atoms: _672  and  _675
REMARK  259  A    between atoms: _675  and  _676
REMARK  260  A    between atoms: _679  and  _681
REMARK  261  A    between atoms: _681  and  _682
REMARK  262  A    between atoms: _681  and  _684
REMARK  263  A    between atoms: _684  and  _685
REMARK  264  A    between atoms: _688  and  _690
REMARK  265  A    between atoms: _690  and  _691
REMARK  266  A    between atoms: _690  and  _693
REMARK  267  A    between atoms: _693  and  _694
REMARK  268  A    between atoms: _724  and  _725
REMARK  269  A    between atoms: _725  and  _731
REMARK                            x       y       z     vdW  Elec       q    Type
REMARK                         _______ _______ _______ _____ _____    ______ ____
ROOT
ATOM      1  O   HOH     1      -1.614  21.800  12.857  0.00  0.00    +0.000 OA
ENDROOT
TORSDOF 0
REMARK  Name = ../refined-set-2016/1b3h/1b3h_pocket.pdb
REMARK  269 active torsions:
REMARK  status: ('A' for Active; 'I' for Inactive)
REMARK    1  A    between atoms: _1  and  _3
REMARK    2  A    between atoms: _3  and  _4
REMARK    3  A    between atoms: _3  and  _6
REMARK    4  A    between atoms: _6  and  _7
REMARK    5  A    between atoms: _12  and  _14
REMARK    6  A    between atoms: _14  and  _15
REMARK    7  A    between atoms: _17  and  _19
REMARK    8  A    between atoms: _19  and  _20
REMARK    9  A    between atoms: _19  and  _22
REMARK   10  A    between atoms: _22  and  _23
REMARK   11  A    between atoms: _25  and  _27
REMARK   12  A    between atoms: _27  and  _28
REMARK   13  A    between atoms: _27  and  _30
REMARK   14  A    between atoms: _30  and  _31
REMARK   15  A    between atoms: _31  and  _32
REMARK   16  A    between atoms: _37  and  _39
REMARK   17  A    between atoms: _39  and  _40
REMARK   18  A    between atoms: _39  and  _42
REMARK   19  A    between atoms: _42  and  _43
REMARK   20  A    between atoms: _46  and  _48
REMARK   21  A    between atoms: _48  and  _49
REMARK   22  A    between atoms: _48  and  _51
REMARK   23  A    between atoms: _51  and  _52
REMARK   24  A    between atoms: _52  and  _53
REMARK   25  A    between atoms: _56  and  _58
REMARK   26  A    between atoms: _58  and  _59
REMARK   27  A    between atoms: _61  and  _63
REMARK   28  A    between atoms: _63  and  _64
REMARK   29  A    between atoms: _63  and  _66
REMARK   30  A    between atoms: _70  and  _71
REMARK   31  A    between atoms: _76  and  _78
REMARK   32  A    between atoms: _78  and  _79
REMARK   33  A    between atoms: _78  and  _81
REMARK   34  A    between atoms: _81  and  _82
REMARK   35  A    between atoms: _82  and  _83
REMARK   36  A    between atoms: _86  and  _88
REMARK   37  A    between atoms: _88  and  _89
REMARK   38  A    between atoms: _88  and  _91
REMARK   39  A    between atoms: _91  and  _92
REMARK   40  A    between atoms: _94  and  _96
REMARK   41  A    between atoms: _96  and  _97
REMARK   42  A    between atoms: _96  and  _99
REMARK   43  A    between atoms: _99  and  _100
REMARK   44  A    between atoms: _105  and  _107
REMARK   45  A    between atoms: _107  and  _108
REMARK   46  A    between atoms: _107  and  _110
REMARK   47  A    between atoms: _110  and  _111
REMARK   48  A    between atoms: _111  and  _112
REMARK   49  A    between atoms: _112  and  _113
REMARK   50  A    between atoms: _123  and  _124
REMARK   51  A    between atoms: _129  and  _131
REMARK   52  A    between atoms: _131  and  _132
REMARK   53  A    between atoms: _131  and  _134
REMARK   54  A    between atoms: _134  and  _135
REMARK   55  A    between atoms: _140  and  _141
REMARK   56  A    between atoms: _143  and  _145
REMARK   57  A    between atoms: _145  and  _146
REMARK   58  A    between atoms: _145  and  _148
REMARK   59  A    between atoms: _148  and  _149
REMARK   60  A    between atoms: _154  and  _155
REMARK   61  A    between atoms: _157  and  _159
REMARK   62  A    between atoms: _159  and  _160
REMARK   63  A    between atoms: _159  and  _162
REMARK   64  A    between atoms: _162  and  _163
REMARK   65  A    between atoms: _168  and  _169
REMARK   66  A    between atoms: _171  and  _173
REMARK   67  A    between atoms: _173  and  _174
REMARK   68  A    between atoms: _173  and  _176
REMARK   69  A    between atoms: _179  and  _181
REMARK   70  A    between atoms: _181  and  _182
REMARK   71  A    between atoms: _181  and  _184
REMARK   72  A    between atoms: _184  and  _185
REMARK   73  A    between atoms: _191  and  _192
REMARK   74  A    between atoms: _197  and  _199
REMARK   75  A    between atoms: _199  and  _200
REMARK   76  A    between atoms: _199  and  _202
REMARK   77  A    between atoms: _202  and  _203
REMARK   78  A    between atoms: _205  and  _207
REMARK   79  A    between atoms: _207  and  _208
REMARK   80  A    between atoms: _207  and  _210
REMARK   81  A    between atoms: _210  and  _211
REMARK   82  A    between atoms: _216  and  _217
REMARK   83  A    between atoms: _219  and  _221
REMARK   84  A    between atoms: _221  and  _222
REMARK   85  A    between atoms: _221  and  _224
REMARK   86  A    between atoms: _224  and  _225
REMARK   87  A    between atoms: _230  and  _232
REMARK   88  A    between atoms: _232  and  _233
REMARK   89  A    between atoms: _232  and  _235
REMARK   90  A    between atoms: _235  and  _236
REMARK   91  A    between atoms: _241  and  _243
REMARK   92  A    between atoms: _243  and  _244
REMARK   93  A    between atoms: _243  and  _246
REMARK   94  A    between atoms: _246  and  _247
REMARK   95  A    between atoms: _247  and  _248
REMARK   96  A    between atoms: _250  and  _252
REMARK   97  A    between atoms: _252  and  _253
REMARK   98  A    between atoms: _252  and  _255
REMARK   99  A    between atoms: _255  and  _256
REMARK  100  A    between atoms: _261  and  _262
REMARK  101  A    between atoms: _264  and  _266
REMARK  102  A    between atoms: _266  and  _267
REMARK  103  A    between atoms: _266  and  _269
REMARK  104  A    between atoms: _269  and  _270
REMARK  105  A    between atoms: _273  and  _275
REMARK  106  A    between atoms: _275  and  _276
REMARK  107  A    between atoms: _275  and  _278
REMARK  108  A    between atoms: _278  and  _279
REMARK  109  A    between atoms: _279  and  _496
REMARK  110  A    between atoms: _280  and  _282
REMARK  111  A    between atoms: _282  and  _283
REMARK  112  A    between atoms: _282  and  _285
REMARK  113  A    between atoms: _285  and  _286
REMARK  114  A    between atoms: _289  and  _291
REMARK  115  A    between atoms: _291  and  _292
REMARK  116  A    between atoms: _291  and  _294
REMARK  117  A    between atoms: _294  and  _295
REMARK  118  A    between atoms: _300  and  _301
REMARK  119  A    between atoms: _303  and  _305
REMARK  120  A    between atoms: _305  and  _306
REMARK  121  A    between atoms: _305  and  _308
REMARK  122  A    between atoms: _308  and  _309
REMARK  123  A    between atoms: _314  and  _315
REMARK  124  A    between atoms: _317  and  _319
REMARK  125  A    between atoms: _319  and  _320
REMARK  126  A    between atoms: _319  and  _322
REMARK  127  A    between atoms: _322  and  _323
REMARK  128  A    between atoms: _323  and  _324
REMARK  129  A    between atoms: _327  and  _329
REMARK  130  A    between atoms: _329  and  _330
REMARK  131  A    between atoms: _329  and  _332
REMARK  132  A    between atoms: _332  and  _333
REMARK  133  A    between atoms: _338  and  _339
REMARK  134  A    between atoms: _341  and  _343
REMARK  135  A    between atoms: _343  and  _344
REMARK  136  A    between atoms: _343  and  _346
REMARK  137  A    between atoms: _346  and  _347
REMARK  138  A    between atoms: _352  and  _354
REMARK  139  A    between atoms: _354  and  _355
REMARK  140  A    between atoms: _354  and  _357
REMARK  141  A    between atoms: _357  and  _358
REMARK  142  A    between atoms: _361  and  _363
REMARK  143  A    between atoms: _363  and  _364
REMARK  144  A    between atoms: _363  and  _366
REMARK  145  A    between atoms: _366  and  _367
REMARK  146  A    between atoms: _372  and  _374
REMARK  147  A    between atoms: _374  and  _375
REMARK  148  A    between atoms: _374  and  _377
REMARK  149  A    between atoms: _377  and  _378
REMARK  150  A    between atoms: _388  and  _390
REMARK  151  A    between atoms: _390  and  _391
REMARK  152  A    between atoms: _390  and  _393
REMARK  153  A    between atoms: _393  and  _394
REMARK  154  A    between atoms: _400  and  _402
REMARK  155  A    between atoms: _402  and  _403
REMARK  156  A    between atoms: _402  and  _405
REMARK  157  A    between atoms: _405  and  _406
REMARK  158  A    between atoms: _409  and  _411
REMARK  159  A    between atoms: _411  and  _412
REMARK  160  A    between atoms: _411  and  _414
REMARK  161  A    between atoms: _414  and  _415
REMARK  162  A    between atoms: _418  and  _420
REMARK  163  A    between atoms: _420  and  _421
REMARK  164  A    between atoms: _420  and  _423
REMARK  165  A    between atoms: _423  and  _424
REMARK  166  A    between atoms: _424  and  _425
REMARK  167  A    between atoms: _425  and  _426
REMARK  168  A    between atoms: _435  and  _437
REMARK  169  A    between atoms: _437  and  _438
REMARK  170  A    between atoms: _437  and  _440
REMARK  171  A    between atoms: _440  and  _441
REMARK  172  A    between atoms: _446  and  _448
REMARK  173  A    between atoms: _448  and  _449
REMARK  174  A    between atoms: _448  and  _451
REMARK  175  A    between atoms: _451  and  _452
REMARK  176  A    between atoms: _452  and  _453
REMARK  177  A    between atoms: _453  and  _454
REMARK  178  A    between atoms: _463  and  _465
REMARK  179  A    between atoms: _465  and  _466
REMARK  180  A    between atoms: _469  and  _471
REMARK  181  A    between atoms: _471  and  _472
REMARK  182  A    between atoms: _474  and  _476
REMARK  183  A    between atoms: _476  and  _477
REMARK  184  A    between atoms: _476  and  _479
REMARK  185  A    between atoms: _479  and  _480
REMARK  186  A    between atoms: _490  and  _492
REMARK  187  A    between atoms: _492  and  _493
REMARK  188  A    between atoms: _492  and  _495
REMARK  189  A    between atoms: _495  and  _496
REMARK  190  A    between atoms: _497  and  _499
REMARK  191  A    between atoms: _499  and  _500
REMARK  192  A    between atoms: _503  and  _505
REMARK  193  A    between atoms: _505  and  _506
REMARK  194  A    between atoms: _505  and  _508
REMARK  195  A    between atoms: _508  and  _509
REMARK  196  A    between atoms: _512  and  _514
REMARK  197  A    between atoms: _514  and  _515
REMARK  198  A    between atoms: _514  and  _517
REMARK  199  A    between atoms: _517  and  _518
REMARK  200  A    between atoms: _523  and  _524
REMARK  201  A    between atoms: _526  and  _528
REMARK  202  A    between atoms: _528  and  _529
REMARK  203  A    between atoms: _528  and  _531
REMARK  204  A    between atoms: _531  and  _532
REMARK  205  A    between atoms: _534  and  _536
REMARK  206  A    between atoms: _536  and  _537
REMARK  207  A    between atoms: _536  and  _539
REMARK  208  A    between atoms: _539  and  _540
REMARK  209  A    between atoms: _546  and  _548
REMARK  210  A    between atoms: _548  and  _549
REMARK  211  A    between atoms: _548  and  _551
REMARK  212  A    between atoms: _551  and  _552
REMARK  213  A    between atoms: _555  and  _557
REMARK  214  A    between atoms: _557  and  _558
REMARK  215  A    between atoms: _557  and  _560
REMARK  216  A    between atoms: _560  and  _561
REMARK  217  A    between atoms: _563  and  _565
REMARK  218  A    between atoms: _565  and  _566
REMARK  219  A    between atoms: _565  and  _568
REMARK  220  A    between atoms: _568  and  _569
REMARK  221  A    between atoms: _574  and  _576
REMARK  222  A    between atoms: _576  and  _577
REMARK  223  A    between atoms: _576  and  _579
REMARK  224  A    between atoms: _579  and  _580
REMARK  225  A    between atoms: _585  and  _587
REMARK  226  A    between atoms: _587  and  _588
REMARK  227  A    between atoms: _587  and  _590
REMARK  228  A    between atoms: _590  and  _591
REMARK  229  A    between atoms: _594  and  _596
REMARK  230  A    between atoms: _596  and  _597
REMARK  231  A    between atoms: _600  and  _602
REMARK  232  A    between atoms: _602  and  _603
REMARK  233  A    between atoms: _602  and  _605
REMARK  234  A    between atoms: _605  and  _606
REMARK  235  A    between atoms: _611  and  _612
REMARK  236  A    between atoms: _614  and  _616
REMARK  237  A    between atoms: _616  and  _617
REMARK  238  A    between atoms: _616  and  _619
REMARK  239  A    between atoms: _619  and  _620
REMARK  240  A    between atoms: _625  and  _626
REMARK  241  A    between atoms: _628  and  _630
REMARK  242  A    between atoms: _630  and  _631
REMARK  243  A    between atoms: _630  and  _633
REMARK  244  A    between atoms: _636  and  _638
REMARK  245  A    between atoms: _638  and  _639
REMARK  246  A    between atoms: _638  and  _641
REMARK  247  A    between atoms: _641  and  _642
REMARK  248  A    between atoms: _647  and  _649
REMARK  249  A    between atoms: _649  and  _650
REMARK  250  A    between atoms: _653  and  _655
REMARK  251  A    between atoms: _655  and  _656
REMARK  252  A    between atoms: _655  and  _658
REMARK  253  A    between atoms: _658  and  _659
REMARK  254  A    between atoms: _659  and  _660
REMARK  255  A    between atoms: _660  and  _661
REMARK  256  A    between atoms: _670  and  _672
REMARK  257  A    between atoms: _672  and  _673
REMARK  258  A    between atoms: _672  and  _675
REMARK  259  A    between atoms: _675  and  _676
REMARK  260  A    between atoms: _679  and  _681
REMARK  261  A    between atoms: _681  and  _682
REMARK  262  A    between atoms: _681  and  _684
REMARK  263  A    between atoms: _684  and  _685
REMARK  264  A    between atoms: _688  and  _690
REMARK  265  A    between atoms: _690  and  _691
REMARK  266  A    between atoms: _690  and  _693
REMARK  267  A    between atoms: _693  and  _694
REMARK  268  A    between atoms: _724  and  _725
REMARK  269  A    between atoms: _725  and  _731
REMARK                            x       y       z     vdW  Elec       q    Type
REMARK                         _______ _______ _______ _____ _____    ______ ____
ROOT
ATOM      1  O   HOH     1       3.838  13.113  11.880  0.00  0.00    +0.000 OA
ENDROOT
TORSDOF 0
REMARK  Name = ../refined-set-2016/1b3h/1b3h_pocket.pdb
REMARK  269 active torsions:
REMARK  status: ('A' for Active; 'I' for Inactive)
REMARK    1  A    between atoms: _1  and  _3
REMARK    2  A    between atoms: _3  and  _4
REMARK    3  A    between atoms: _3  and  _6
REMARK    4  A    between atoms: _6  and  _7
REMARK    5  A    between atoms: _12  and  _14
REMARK    6  A    between atoms: _14  and  _15
REMARK    7  A    between atoms: _17  and  _19
REMARK    8  A    between atoms: _19  and  _20
REMARK    9  A    between atoms: _19  and  _22
REMARK   10  A    between atoms: _22  and  _23
REMARK   11  A    between atoms: _25  and  _27
REMARK   12  A    between atoms: _27  and  _28
REMARK   13  A    between atoms: _27  and  _30
REMARK   14  A    between atoms: _30  and  _31
REMARK   15  A    between atoms: _31  and  _32
REMARK   16  A    between atoms: _37  and  _39
REMARK   17  A    between atoms: _39  and  _40
REMARK   18  A    between atoms: _39  and  _42
REMARK   19  A    between atoms: _42  and  _43
REMARK   20  A    between atoms: _46  and  _48
REMARK   21  A    between atoms: _48  and  _49
REMARK   22  A    between atoms: _48  and  _51
REMARK   23  A    between atoms: _51  and  _52
REMARK   24  A    between atoms: _52  and  _53
REMARK   25  A    between atoms: _56  and  _58
REMARK   26  A    between atoms: _58  and  _59
REMARK   27  A    between atoms: _61  and  _63
REMARK   28  A    between atoms: _63  and  _64
REMARK   29  A    between atoms: _63  and  _66
REMARK   30  A    between atoms: _70  and  _71
REMARK   31  A    between atoms: _76  and  _78
REMARK   32  A    between atoms: _78  and  _79
REMARK   33  A    between atoms: _78  and  _81
REMARK   34  A    between atoms: _81  and  _82
REMARK   35  A    between atoms: _82  and  _83
REMARK   36  A    between atoms: _86  and  _88
REMARK   37  A    between atoms: _88  and  _89
REMARK   38  A    between atoms: _88  and  _91
REMARK   39  A    between atoms: _91  and  _92
REMARK   40  A    between atoms: _94  and  _96
REMARK   41  A    between atoms: _96  and  _97
REMARK   42  A    between atoms: _96  and  _99
REMARK   43  A    between atoms: _99  and  _100
REMARK   44  A    between atoms: _105  and  _107
REMARK   45  A    between atoms: _107  and  _108
REMARK   46  A    between atoms: _107  and  _110
REMARK   47  A    between atoms: _110  and  _111
REMARK   48  A    between atoms: _111  and  _112
REMARK   49  A    between atoms: _112  and  _113
REMARK   50  A    between atoms: _123  and  _124
REMARK   51  A    between atoms: _129  and  _131
REMARK   52  A    between atoms: _131  and  _132
REMARK   53  A    between atoms: _131  and  _134
REMARK   54  A    between atoms: _134  and  _135
REMARK   55  A    between atoms: _140  and  _141
REMARK   56  A    between atoms: _143  and  _145
REMARK   57  A    between atoms: _145  and  _146
REMARK   58  A    between atoms: _145  and  _148
REMARK   59  A    between atoms: _148  and  _149
REMARK   60  A    between atoms: _154  and  _155
REMARK   61  A    between atoms: _157  and  _159
REMARK   62  A    between atoms: _159  and  _160
REMARK   63  A    between atoms: _159  and  _162
REMARK   64  A    between atoms: _162  and  _163
REMARK   65  A    between atoms: _168  and  _169
REMARK   66  A    between atoms: _171  and  _173
REMARK   67  A    between atoms: _173  and  _174
REMARK   68  A    between atoms: _173  and  _176
REMARK   69  A    between atoms: _179  and  _181
REMARK   70  A    between atoms: _181  and  _182
REMARK   71  A    between atoms: _181  and  _184
REMARK   72  A    between atoms: _184  and  _185
REMARK   73  A    between atoms: _191  and  _192
REMARK   74  A    between atoms: _197  and  _199
REMARK   75  A    between atoms: _199  and  _200
REMARK   76  A    between atoms: _199  and  _202
REMARK   77  A    between atoms: _202  and  _203
REMARK   78  A    between atoms: _205  and  _207
REMARK   79  A    between atoms: _207  and  _208
REMARK   80  A    between atoms: _207  and  _210
REMARK   81  A    between atoms: _210  and  _211
REMARK   82  A    between atoms: _216  and  _217
REMARK   83  A    between atoms: _219  and  _221
REMARK   84  A    between atoms: _221  and  _222
REMARK   85  A    between atoms: _221  and  _224
REMARK   86  A    between atoms: _224  and  _225
REMARK   87  A    between atoms: _230  and  _232
REMARK   88  A    between atoms: _232  and  _233
REMARK   89  A    between atoms: _232  and  _235
REMARK   90  A    between atoms: _235  and  _236
REMARK   91  A    between atoms: _241  and  _243
REMARK   92  A    between atoms: _243  and  _244
REMARK   93  A    between atoms: _243  and  _246
REMARK   94  A    between atoms: _246  and  _247
REMARK   95  A    between atoms: _247  and  _248
REMARK   96  A    between atoms: _250  and  _252
REMARK   97  A    between atoms: _252  and  _253
REMARK   98  A    between atoms: _252  and  _255
REMARK   99  A    between atoms: _255  and  _256
REMARK  100  A    between atoms: _261  and  _262
REMARK  101  A    between atoms: _264  and  _266
REMARK  102  A    between atoms: _266  and  _267
REMARK  103  A    between atoms: _266  and  _269
REMARK  104  A    between atoms: _269  and  _270
REMARK  105  A    between atoms: _273  and  _275
REMARK  106  A    between atoms: _275  and  _276
REMARK  107  A    between atoms: _275  and  _278
REMARK  108  A    between atoms: _278  and  _279
REMARK  109  A    between atoms: _279  and  _496
REMARK  110  A    between atoms: _280  and  _282
REMARK  111  A    between atoms: _282  and  _283
REMARK  112  A    between atoms: _282  and  _285
REMARK  113  A    between atoms: _285  and  _286
REMARK  114  A    between atoms: _289  and  _291
REMARK  115  A    between atoms: _291  and  _292
REMARK  116  A    between atoms: _291  and  _294
REMARK  117  A    between atoms: _294  and  _295
REMARK  118  A    between atoms: _300  and  _301
REMARK  119  A    between atoms: _303  and  _305
REMARK  120  A    between atoms: _305  and  _306
REMARK  121  A    between atoms: _305  and  _308
REMARK  122  A    between atoms: _308  and  _309
REMARK  123  A    between atoms: _314  and  _315
REMARK  124  A    between atoms: _317  and  _319
REMARK  125  A    between atoms: _319  and  _320
REMARK  126  A    between atoms: _319  and  _322
REMARK  127  A    between atoms: _322  and  _323
REMARK  128  A    between atoms: _323  and  _324
REMARK  129  A    between atoms: _327  and  _329
REMARK  130  A    between atoms: _329  and  _330
REMARK  131  A    between atoms: _329  and  _332
REMARK  132  A    between atoms: _332  and  _333
REMARK  133  A    between atoms: _338  and  _339
REMARK  134  A    between atoms: _341  and  _343
REMARK  135  A    between atoms: _343  and  _344
REMARK  136  A    between atoms: _343  and  _346
REMARK  137  A    between atoms: _346  and  _347
REMARK  138  A    between atoms: _352  and  _354
REMARK  139  A    between atoms: _354  and  _355
REMARK  140  A    between atoms: _354  and  _357
REMARK  141  A    between atoms: _357  and  _358
REMARK  142  A    between atoms: _361  and  _363
REMARK  143  A    between atoms: _363  and  _364
REMARK  144  A    between atoms: _363  and  _366
REMARK  145  A    between atoms: _366  and  _367
REMARK  146  A    between atoms: _372  and  _374
REMARK  147  A    between atoms: _374  and  _375
REMARK  148  A    between atoms: _374  and  _377
REMARK  149  A    between atoms: _377  and  _378
REMARK  150  A    between atoms: _388  and  _390
REMARK  151  A    between atoms: _390  and  _391
REMARK  152  A    between atoms: _390  and  _393
REMARK  153  A    between atoms: _393  and  _394
REMARK  154  A    between atoms: _400  and  _402
REMARK  155  A    between atoms: _402  and  _403
REMARK  156  A    between atoms: _402  and  _405
REMARK  157  A    between atoms: _405  and  _406
REMARK  158  A    between atoms: _409  and  _411
REMARK  159  A    between atoms: _411  and  _412
REMARK  160  A    between atoms: _411  and  _414
REMARK  161  A    between atoms: _414  and  _415
REMARK  162  A    between atoms: _418  and  _420
REMARK  163  A    between atoms: _420  and  _421
REMARK  164  A    between atoms: _420  and  _423
REMARK  165  A    between atoms: _423  and  _424
REMARK  166  A    between atoms: _424  and  _425
REMARK  167  A    between atoms: _425  and  _426
REMARK  168  A    between atoms: _435  and  _437
REMARK  169  A    between atoms: _437  and  _438
REMARK  170  A    between atoms: _437  and  _440
REMARK  171  A    between atoms: _440  and  _441
REMARK  172  A    between atoms: _446  and  _448
REMARK  173  A    between atoms: _448  and  _449
REMARK  174  A    between atoms: _448  and  _451
REMARK  175  A    between atoms: _451  and  _452
REMARK  176  A    between atoms: _452  and  _453
REMARK  177  A    between atoms: _453  and  _454
REMARK  178  A    between atoms: _463  and  _465
REMARK  179  A    between atoms: _465  and  _466
REMARK  180  A    between atoms: _469  and  _471
REMARK  181  A    between atoms: _471  and  _472
REMARK  182  A    between atoms: _474  and  _476
REMARK  183  A    between atoms: _476  and  _477
REMARK  184  A    between atoms: _476  and  _479
REMARK  185  A    between atoms: _479  and  _480
REMARK  186  A    between atoms: _490  and  _492
REMARK  187  A    between atoms: _492  and  _493
REMARK  188  A    between atoms: _492  and  _495
REMARK  189  A    between atoms: _495  and  _496
REMARK  190  A    between atoms: _497  and  _499
REMARK  191  A    between atoms: _499  and  _500
REMARK  192  A    between atoms: _503  and  _505
REMARK  193  A    between atoms: _505  and  _506
REMARK  194  A    between atoms: _505  and  _508
REMARK  195  A    between atoms: _508  and  _509
REMARK  196  A    between atoms: _512  and  _514
REMARK  197  A    between atoms: _514  and  _515
REMARK  198  A    between atoms: _514  and  _517
REMARK  199  A    between atoms: _517  and  _518
REMARK  200  A    between atoms: _523  and  _524
REMARK  201  A    between atoms: _526  and  _528
REMARK  202  A    between atoms: _528  and  _529
REMARK  203  A    between atoms: _528  and  _531
REMARK  204  A    between atoms: _531  and  _532
REMARK  205  A    between atoms: _534  and  _536
REMARK  206  A    between atoms: _536  and  _537
REMARK  207  A    between atoms: _536  and  _539
REMARK  208  A    between atoms: _539  and  _540
REMARK  209  A    between atoms: _546  and  _548
REMARK  210  A    between atoms: _548  and  _549
REMARK  211  A    between atoms: _548  and  _551
REMARK  212  A    between atoms: _551  and  _552
REMARK  213  A    between atoms: _555  and  _557
REMARK  214  A    between atoms: _557  and  _558
REMARK  215  A    between atoms: _557  and  _560
REMARK  216  A    between atoms: _560  and  _561
REMARK  217  A    between atoms: _563  and  _565
REMARK  218  A    between atoms: _565  and  _566
REMARK  219  A    between atoms: _565  and  _568
REMARK  220  A    between atoms: _568  and  _569
REMARK  221  A    between atoms: _574  and  _576
REMARK  222  A    between atoms: _576  and  _577
REMARK  223  A    between atoms: _576  and  _579
REMARK  224  A    between atoms: _579  and  _580
REMARK  225  A    between atoms: _585  and  _587
REMARK  226  A    between atoms: _587  and  _588
REMARK  227  A    between atoms: _587  and  _590
REMARK  228  A    between atoms: _590  and  _591
REMARK  229  A    between atoms: _594  and  _596
REMARK  230  A    between atoms: _596  and  _597
REMARK  231  A    between atoms: _600  and  _602
REMARK  232  A    between atoms: _602  and  _603
REMARK  233  A    between atoms: _602  and  _605
REMARK  234  A    between atoms: _605  and  _606
REMARK  235  A    between atoms: _611  and  _612
REMARK  236  A    between atoms: _614  and  _616
REMARK  237  A    between atoms: _616  and  _617
REMARK  238  A    between atoms: _616  and  _619
REMARK  239  A    between atoms: _619  and  _620
REMARK  240  A    between atoms: _625  and  _626
REMARK  241  A    between atoms: _628  and  _630
REMARK  242  A    between atoms: _630  and  _631
REMARK  243  A    between atoms: _630  and  _633
REMARK  244  A    between atoms: _636  and  _638
REMARK  245  A    between atoms: _638  and  _639
REMARK  246  A    between atoms: _638  and  _641
REMARK  247  A    between atoms: _641  and  _642
REMARK  248  A    between atoms: _647  and  _649
REMARK  249  A    between atoms: _649  and  _650
REMARK  250  A    between atoms: _653  and  _655
REMARK  251  A    between atoms: _655  and  _656
REMARK  252  A    between atoms: _655  and  _658
REMARK  253  A    between atoms: _658  and  _659
REMARK  254  A    between atoms: _659  and  _660
REMARK  255  A    between atoms: _660  and  _661
REMARK  256  A    between atoms: _670  and  _672
REMARK  257  A    between atoms: _672  and  _673
REMARK  258  A    between atoms: _672  and  _675
REMARK  259  A    between atoms: _675  and  _676
REMARK  260  A    between atoms: _679  and  _681
REMARK  261  A    between atoms: _681  and  _682
REMARK  262  A    between atoms: _681  and  _684
REMARK  263  A    between atoms: _684  and  _685
REMARK  264  A    between atoms: _688  and  _690
REMARK  265  A    between atoms: _690  and  _691
REMARK  266  A    between atoms: _690  and  _693
REMARK  267  A    between atoms: _693  and  _694
REMARK  268  A    between atoms: _724  and  _725
REMARK  269  A    between atoms: _725  and  _731
REMARK                            x       y       z     vdW  Elec       q    Type
REMARK                         _______ _______ _______ _____ _____    ______ ____
ROOT
ATOM      1  O   HOH     1       4.393  14.074   8.993  0.00  0.00    +0.000 OA
ENDROOT
TORSDOF 0
REMARK  Name = ../refined-set-2016/1b3h/1b3h_pocket.pdb
REMARK  269 active torsions:
REMARK  status: ('A' for Active; 'I' for Inactive)
REMARK    1  A    between atoms: _1  and  _3
REMARK    2  A    between atoms: _3  and  _4
REMARK    3  A    between atoms: _3  and  _6
REMARK    4  A    between atoms: _6  and  _7
REMARK    5  A    between atoms: _12  and  _14
REMARK    6  A    between atoms: _14  and  _15
REMARK    7  A    between atoms: _17  and  _19
REMARK    8  A    between atoms: _19  and  _20
REMARK    9  A    between atoms: _19  and  _22
REMARK   10  A    between atoms: _22  and  _23
REMARK   11  A    between atoms: _25  and  _27
REMARK   12  A    between atoms: _27  and  _28
REMARK   13  A    between atoms: _27  and  _30
REMARK   14  A    between atoms: _30  and  _31
REMARK   15  A    between atoms: _31  and  _32
REMARK   16  A    between atoms: _37  and  _39
REMARK   17  A    between atoms: _39  and  _40
REMARK   18  A    between atoms: _39  and  _42
REMARK   19  A    between atoms: _42  and  _43
REMARK   20  A    between atoms: _46  and  _48
REMARK   21  A    between atoms: _48  and  _49
REMARK   22  A    between atoms: _48  and  _51
REMARK   23  A    between atoms: _51  and  _52
REMARK   24  A    between atoms: _52  and  _53
REMARK   25  A    between atoms: _56  and  _58
REMARK   26  A    between atoms: _58  and  _59
REMARK   27  A    between atoms: _61  and  _63
REMARK   28  A    between atoms: _63  and  _64
REMARK   29  A    between atoms: _63  and  _66
REMARK   30  A    between atoms: _70  and  _71
REMARK   31  A    between atoms: _76  and  _78
REMARK   32  A    between atoms: _78  and  _79
REMARK   33  A    between atoms: _78  and  _81
REMARK   34  A    between atoms: _81  and  _82
REMARK   35  A    between atoms: _82  and  _83
REMARK   36  A    between atoms: _86  and  _88
REMARK   37  A    between atoms: _88  and  _89
REMARK   38  A    between atoms: _88  and  _91
REMARK   39  A    between atoms: _91  and  _92
REMARK   40  A    between atoms: _94  and  _96
REMARK   41  A    between atoms: _96  and  _97
REMARK   42  A    between atoms: _96  and  _99
REMARK   43  A    between atoms: _99  and  _100
REMARK   44  A    between atoms: _105  and  _107
REMARK   45  A    between atoms: _107  and  _108
REMARK   46  A    between atoms: _107  and  _110
REMARK   47  A    between atoms: _110  and  _111
REMARK   48  A    between atoms: _111  and  _112
REMARK   49  A    between atoms: _112  and  _113
REMARK   50  A    between atoms: _123  and  _124
REMARK   51  A    between atoms: _129  and  _131
REMARK   52  A    between atoms: _131  and  _132
REMARK   53  A    between atoms: _131  and  _134
REMARK   54  A    between atoms: _134  and  _135
REMARK   55  A    between atoms: _140  and  _141
REMARK   56  A    between atoms: _143  and  _145
REMARK   57  A    between atoms: _145  and  _146
REMARK   58  A    between atoms: _145  and  _148
REMARK   59  A    between atoms: _148  and  _149
REMARK   60  A    between atoms: _154  and  _155
REMARK   61  A    between atoms: _157  and  _159
REMARK   62  A    between atoms: _159  and  _160
REMARK   63  A    between atoms: _159  and  _162
REMARK   64  A    between atoms: _162  and  _163
REMARK   65  A    between atoms: _168  and  _169
REMARK   66  A    between atoms: _171  and  _173
REMARK   67  A    between atoms: _173  and  _174
REMARK   68  A    between atoms: _173  and  _176
REMARK   69  A    between atoms: _179  and  _181
REMARK   70  A    between atoms: _181  and  _182
REMARK   71  A    between atoms: _181  and  _184
REMARK   72  A    between atoms: _184  and  _185
REMARK   73  A    between atoms: _191  and  _192
REMARK   74  A    between atoms: _197  and  _199
REMARK   75  A    between atoms: _199  and  _200
REMARK   76  A    between atoms: _199  and  _202
REMARK   77  A    between atoms: _202  and  _203
REMARK   78  A    between atoms: _205  and  _207
REMARK   79  A    between atoms: _207  and  _208
REMARK   80  A    between atoms: _207  and  _210
REMARK   81  A    between atoms: _210  and  _211
REMARK   82  A    between atoms: _216  and  _217
REMARK   83  A    between atoms: _219  and  _221
REMARK   84  A    between atoms: _221  and  _222
REMARK   85  A    between atoms: _221  and  _224
REMARK   86  A    between atoms: _224  and  _225
REMARK   87  A    between atoms: _230  and  _232
REMARK   88  A    between atoms: _232  and  _233
REMARK   89  A    between atoms: _232  and  _235
REMARK   90  A    between atoms: _235  and  _236
REMARK   91  A    between atoms: _241  and  _243
REMARK   92  A    between atoms: _243  and  _244
REMARK   93  A    between atoms: _243  and  _246
REMARK   94  A    between atoms: _246  and  _247
REMARK   95  A    between atoms: _247  and  _248
REMARK   96  A    between atoms: _250  and  _252
REMARK   97  A    between atoms: _252  and  _253
REMARK   98  A    between atoms: _252  and  _255
REMARK   99  A    between atoms: _255  and  _256
REMARK  100  A    between atoms: _261  and  _262
REMARK  101  A    between atoms: _264  and  _266
REMARK  102  A    between atoms: _266  and  _267
REMARK  103  A    between atoms: _266  and  _269
REMARK  104  A    between atoms: _269  and  _270
REMARK  105  A    between atoms: _273  and  _275
REMARK  106  A    between atoms: _275  and  _276
REMARK  107  A    between atoms: _275  and  _278
REMARK  108  A    between atoms: _278  and  _279
REMARK  109  A    between atoms: _279  and  _496
REMARK  110  A    between atoms: _280  and  _282
REMARK  111  A    between atoms: _282  and  _283
REMARK  112  A    between atoms: _282  and  _285
REMARK  113  A    between atoms: _285  and  _286
REMARK  114  A    between atoms: _289  and  _291
REMARK  115  A    between atoms: _291  and  _292
REMARK  116  A    between atoms: _291  and  _294
REMARK  117  A    between atoms: _294  and  _295
REMARK  118  A    between atoms: _300  and  _301
REMARK  119  A    between atoms: _303  and  _305
REMARK  120  A    between atoms: _305  and  _306
REMARK  121  A    between atoms: _305  and  _308
REMARK  122  A    between atoms: _308  and  _309
REMARK  123  A    between atoms: _314  and  _315
REMARK  124  A    between atoms: _317  and  _319
REMARK  125  A    between atoms: _319  and  _320
REMARK  126  A    between atoms: _319  and  _322
REMARK  127  A    between atoms: _322  and  _323
REMARK  128  A    between atoms: _323  and  _324
REMARK  129  A    between atoms: _327  and  _329
REMARK  130  A    between atoms: _329  and  _330
REMARK  131  A    between atoms: _329  and  _332
REMARK  132  A    between atoms: _332  and  _333
REMARK  133  A    between atoms: _338  and  _339
REMARK  134  A    between atoms: _341  and  _343
REMARK  135  A    between atoms: _343  and  _344
REMARK  136  A    between atoms: _343  and  _346
REMARK  137  A    between atoms: _346  and  _347
REMARK  138  A    between atoms: _352  and  _354
REMARK  139  A    between atoms: _354  and  _355
REMARK  140  A    between atoms: _354  and  _357
REMARK  141  A    between atoms: _357  and  _358
REMARK  142  A    between atoms: _361  and  _363
REMARK  143  A    between atoms: _363  and  _364
REMARK  144  A    between atoms: _363  and  _366
REMARK  145  A    between atoms: _366  and  _367
REMARK  146  A    between atoms: _372  and  _374
REMARK  147  A    between atoms: _374  and  _375
REMARK  148  A    between atoms: _374  and  _377
REMARK  149  A    between atoms: _377  and  _378
REMARK  150  A    between atoms: _388  and  _390
REMARK  151  A    between atoms: _390  and  _391
REMARK  152  A    between atoms: _390  and  _393
REMARK  153  A    between atoms: _393  and  _394
REMARK  154  A    between atoms: _400  and  _402
REMARK  155  A    between atoms: _402  and  _403
REMARK  156  A    between atoms: _402  and  _405
REMARK  157  A    between atoms: _405  and  _406
REMARK  158  A    between atoms: _409  and  _411
REMARK  159  A    between atoms: _411  and  _412
REMARK  160  A    between atoms: _411  and  _414
REMARK  161  A    between atoms: _414  and  _415
REMARK  162  A    between atoms: _418  and  _420
REMARK  163  A    between atoms: _420  and  _421
REMARK  164  A    between atoms: _420  and  _423
REMARK  165  A    between atoms: _423  and  _424
REMARK  166  A    between atoms: _424  and  _425
REMARK  167  A    between atoms: _425  and  _426
REMARK  168  A    between atoms: _435  and  _437
REMARK  169  A    between atoms: _437  and  _438
REMARK  170  A    between atoms: _437  and  _440
REMARK  171  A    between atoms: _440  and  _441
REMARK  172  A    between atoms: _446  and  _448
REMARK  173  A    between atoms: _448  and  _449
REMARK  174  A    between atoms: _448  and  _451
REMARK  175  A    between atoms: _451  and  _452
REMARK  176  A    between atoms: _452  and  _453
REMARK  177  A    between atoms: _453  and  _454
REMARK  178  A    between atoms: _463  and  _465
REMARK  179  A    between atoms: _465  and  _466
REMARK  180  A    between atoms: _469  and  _471
REMARK  181  A    between atoms: _471  and  _472
REMARK  182  A    between atoms: _474  and  _476
REMARK  183  A    between atoms: _476  and  _477
REMARK  184  A    between atoms: _476  and  _479
REMARK  185  A    between atoms: _479  and  _480
REMARK  186  A    between atoms: _490  and  _492
REMARK  187  A    between atoms: _492  and  _493
REMARK  188  A    between atoms: _492  and  _495
REMARK  189  A    between atoms: _495  and  _496
REMARK  190  A    between atoms: _497  and  _499
REMARK  191  A    between atoms: _499  and  _500
REMARK  192  A    between atoms: _503  and  _505
REMARK  193  A    between atoms: _505  and  _506
REMARK  194  A    between atoms: _505  and  _508
REMARK  195  A    between atoms: _508  and  _509
REMARK  196  A    between atoms: _512  and  _514
REMARK  197  A    between atoms: _514  and  _515
REMARK  198  A    between atoms: _514  and  _517
REMARK  199  A    between atoms: _517  and  _518
REMARK  200  A    between atoms: _523  and  _524
REMARK  201  A    between atoms: _526  and  _528
REMARK  202  A    between atoms: _528  and  _529
REMARK  203  A    between atoms: _528  and  _531
REMARK  204  A    between atoms: _531  and  _532
REMARK  205  A    between atoms: _534  and  _536
REMARK  206  A    between atoms: _536  and  _537
REMARK  207  A    between atoms: _536  and  _539
REMARK  208  A    between atoms: _539  and  _540
REMARK  209  A    between atoms: _546  and  _548
REMARK  210  A    between atoms: _548  and  _549
REMARK  211  A    between atoms: _548  and  _551
REMARK  212  A    between atoms: _551  and  _552
REMARK  213  A    between atoms: _555  and  _557
REMARK  214  A    between atoms: _557  and  _558
REMARK  215  A    between atoms: _557  and  _560
REMARK  216  A    between atoms: _560  and  _561
REMARK  217  A    between atoms: _563  and  _565
REMARK  218  A    between atoms: _565  and  _566
REMARK  219  A    between atoms: _565  and  _568
REMARK  220  A    between atoms: _568  and  _569
REMARK  221  A    between atoms: _574  and  _576
REMARK  222  A    between atoms: _576  and  _577
REMARK  223  A    between atoms: _576  and  _579
REMARK  224  A    between atoms: _579  and  _580
REMARK  225  A    between atoms: _585  and  _587
REMARK  226  A    between atoms: _587  and  _588
REMARK  227  A    between atoms: _587  and  _590
REMARK  228  A    between atoms: _590  and  _591
REMARK  229  A    between atoms: _594  and  _596
REMARK  230  A    between atoms: _596  and  _597
REMARK  231  A    between atoms: _600  and  _602
REMARK  232  A    between atoms: _602  and  _603
REMARK  233  A    between atoms: _602  and  _605
REMARK  234  A    between atoms: _605  and  _606
REMARK  235  A    between atoms: _611  and  _612
REMARK  236  A    between atoms: _614  and  _616
REMARK  237  A    between atoms: _616  and  _617
REMARK  238  A    between atoms: _616  and  _619
REMARK  239  A    between atoms: _619  and  _620
REMARK  240  A    between atoms: _625  and  _626
REMARK  241  A    between atoms: _628  and  _630
REMARK  242  A    between atoms: _630  and  _631
REMARK  243  A    between atoms: _630  and  _633
REMARK  244  A    between atoms: _636  and  _638
REMARK  245  A    between atoms: _638  and  _639
REMARK  246  A    between atoms: _638  and  _641
REMARK  247  A    between atoms: _641  and  _642
REMARK  248  A    between atoms: _647  and  _649
REMARK  249  A    between atoms: _649  and  _650
REMARK  250  A    between atoms: _653  and  _655
REMARK  251  A    between atoms: _655  and  _656
REMARK  252  A    between atoms: _655  and  _658
REMARK  253  A    between atoms: _658  and  _659
REMARK  254  A    between atoms: _659  and  _660
REMARK  255  A    between atoms: _660  and  _661
REMARK  256  A    between atoms: _670  and  _672
REMARK  257  A    between atoms: _672  and  _673
REMARK  258  A    between atoms: _672  and  _675
REMARK  259  A    between atoms: _675  and  _676
REMARK  260  A    between atoms: _679  and  _681
REMARK  261  A    between atoms: _681  and  _682
REMARK  262  A    between atoms: _681  and  _684
REMARK  263  A    between atoms: _684  and  _685
REMARK  264  A    between atoms: _688  and  _690
REMARK  265  A    between atoms: _690  and  _691
REMARK  266  A    between atoms: _690  and  _693
REMARK  267  A    between atoms: _693  and  _694
REMARK  268  A    between atoms: _724  and  _725
REMARK  269  A    between atoms: _725  and  _731
REMARK                            x       y       z     vdW  Elec       q    Type
REMARK                         _______ _______ _______ _____ _____    ______ ____
ROOT
ATOM      1  O   HOH     1      11.874  26.641  23.460  0.00  0.00    +0.000 OA
ENDROOT
TORSDOF 0
REMARK  Name = ../refined-set-2016/1b3h/1b3h_pocket.pdb
REMARK  269 active torsions:
REMARK  status: ('A' for Active; 'I' for Inactive)
REMARK    1  A    between atoms: _1  and  _3
REMARK    2  A    between atoms: _3  and  _4
REMARK    3  A    between atoms: _3  and  _6
REMARK    4  A    between atoms: _6  and  _7
REMARK    5  A    between atoms: _12  and  _14
REMARK    6  A    between atoms: _14  and  _15
REMARK    7  A    between atoms: _17  and  _19
REMARK    8  A    between atoms: _19  and  _20
REMARK    9  A    between atoms: _19  and  _22
REMARK   10  A    between atoms: _22  and  _23
REMARK   11  A    between atoms: _25  and  _27
REMARK   12  A    between atoms: _27  and  _28
REMARK   13  A    between atoms: _27  and  _30
REMARK   14  A    between atoms: _30  and  _31
REMARK   15  A    between atoms: _31  and  _32
REMARK   16  A    between atoms: _37  and  _39
REMARK   17  A    between atoms: _39  and  _40
REMARK   18  A    between atoms: _39  and  _42
REMARK   19  A    between atoms: _42  and  _43
REMARK   20  A    between atoms: _46  and  _48
REMARK   21  A    between atoms: _48  and  _49
REMARK   22  A    between atoms: _48  and  _51
REMARK   23  A    between atoms: _51  and  _52
REMARK   24  A    between atoms: _52  and  _53
REMARK   25  A    between atoms: _56  and  _58
REMARK   26  A    between atoms: _58  and  _59
REMARK   27  A    between atoms: _61  and  _63
REMARK   28  A    between atoms: _63  and  _64
REMARK   29  A    between atoms: _63  and  _66
REMARK   30  A    between atoms: _70  and  _71
REMARK   31  A    between atoms: _76  and  _78
REMARK   32  A    between atoms: _78  and  _79
REMARK   33  A    between atoms: _78  and  _81
REMARK   34  A    between atoms: _81  and  _82
REMARK   35  A    between atoms: _82  and  _83
REMARK   36  A    between atoms: _86  and  _88
REMARK   37  A    between atoms: _88  and  _89
REMARK   38  A    between atoms: _88  and  _91
REMARK   39  A    between atoms: _91  and  _92
REMARK   40  A    between atoms: _94  and  _96
REMARK   41  A    between atoms: _96  and  _97
REMARK   42  A    between atoms: _96  and  _99
REMARK   43  A    between atoms: _99  and  _100
REMARK   44  A    between atoms: _105  and  _107
REMARK   45  A    between atoms: _107  and  _108
REMARK   46  A    between atoms: _107  and  _110
REMARK   47  A    between atoms: _110  and  _111
REMARK   48  A    between atoms: _111  and  _112
REMARK   49  A    between atoms: _112  and  _113
REMARK   50  A    between atoms: _123  and  _124
REMARK   51  A    between atoms: _129  and  _131
REMARK   52  A    between atoms: _131  and  _132
REMARK   53  A    between atoms: _131  and  _134
REMARK   54  A    between atoms: _134  and  _135
REMARK   55  A    between atoms: _140  and  _141
REMARK   56  A    between atoms: _143  and  _145
REMARK   57  A    between atoms: _145  and  _146
REMARK   58  A    between atoms: _145  and  _148
REMARK   59  A    between atoms: _148  and  _149
REMARK   60  A    between atoms: _154  and  _155
REMARK   61  A    between atoms: _157  and  _159
REMARK   62  A    between atoms: _159  and  _160
REMARK   63  A    between atoms: _159  and  _162
REMARK   64  A    between atoms: _162  and  _163
REMARK   65  A    between atoms: _168  and  _169
REMARK   66  A    between atoms: _171  and  _173
REMARK   67  A    between atoms: _173  and  _174
REMARK   68  A    between atoms: _173  and  _176
REMARK   69  A    between atoms: _179  and  _181
REMARK   70  A    between atoms: _181  and  _182
REMARK   71  A    between atoms: _181  and  _184
REMARK   72  A    between atoms: _184  and  _185
REMARK   73  A    between atoms: _191  and  _192
REMARK   74  A    between atoms: _197  and  _199
REMARK   75  A    between atoms: _199  and  _200
REMARK   76  A    between atoms: _199  and  _202
REMARK   77  A    between atoms: _202  and  _203
REMARK   78  A    between atoms: _205  and  _207
REMARK   79  A    between atoms: _207  and  _208
REMARK   80  A    between atoms: _207  and  _210
REMARK   81  A    between atoms: _210  and  _211
REMARK   82  A    between atoms: _216  and  _217
REMARK   83  A    between atoms: _219  and  _221
REMARK   84  A    between atoms: _221  and  _222
REMARK   85  A    between atoms: _221  and  _224
REMARK   86  A    between atoms: _224  and  _225
REMARK   87  A    between atoms: _230  and  _232
REMARK   88  A    between atoms: _232  and  _233
REMARK   89  A    between atoms: _232  and  _235
REMARK   90  A    between atoms: _235  and  _236
REMARK   91  A    between atoms: _241  and  _243
REMARK   92  A    between atoms: _243  and  _244
REMARK   93  A    between atoms: _243  and  _246
REMARK   94  A    between atoms: _246  and  _247
REMARK   95  A    between atoms: _247  and  _248
REMARK   96  A    between atoms: _250  and  _252
REMARK   97  A    between atoms: _252  and  _253
REMARK   98  A    between atoms: _252  and  _255
REMARK   99  A    between atoms: _255  and  _256
REMARK  100  A    between atoms: _261  and  _262
REMARK  101  A    between atoms: _264  and  _266
REMARK  102  A    between atoms: _266  and  _267
REMARK  103  A    between atoms: _266  and  _269
REMARK  104  A    between atoms: _269  and  _270
REMARK  105  A    between atoms: _273  and  _275
REMARK  106  A    between atoms: _275  and  _276
REMARK  107  A    between atoms: _275  and  _278
REMARK  108  A    between atoms: _278  and  _279
REMARK  109  A    between atoms: _279  and  _496
REMARK  110  A    between atoms: _280  and  _282
REMARK  111  A    between atoms: _282  and  _283
REMARK  112  A    between atoms: _282  and  _285
REMARK  113  A    between atoms: _285  and  _286
REMARK  114  A    between atoms: _289  and  _291
REMARK  115  A    between atoms: _291  and  _292
REMARK  116  A    between atoms: _291  and  _294
REMARK  117  A    between atoms: _294  and  _295
REMARK  118  A    between atoms: _300  and  _301
REMARK  119  A    between atoms: _303  and  _305
REMARK  120  A    between atoms: _305  and  _306
REMARK  121  A    between atoms: _305  and  _308
REMARK  122  A    between atoms: _308  and  _309
REMARK  123  A    between atoms: _314  and  _315
REMARK  124  A    between atoms: _317  and  _319
REMARK  125  A    between atoms: _319  and  _320
REMARK  126  A    between atoms: _319  and  _322
REMARK  127  A    between atoms: _322  and  _323
REMARK  128  A    between atoms: _323  and  _324
REMARK  129  A    between atoms: _327  and  _329
REMARK  130  A    between atoms: _329  and  _330
REMARK  131  A    between atoms: _329  and  _332
REMARK  132  A    between atoms: _332  and  _333
REMARK  133  A    between atoms: _338  and  _339
REMARK  134  A    between atoms: _341  and  _343
REMARK  135  A    between atoms: _343  and  _344
REMARK  136  A    between atoms: _343  and  _346
REMARK  137  A    between atoms: _346  and  _347
REMARK  138  A    between atoms: _352  and  _354
REMARK  139  A    between atoms: _354  and  _355
REMARK  140  A    between atoms: _354  and  _357
REMARK  141  A    between atoms: _357  and  _358
REMARK  142  A    between atoms: _361  and  _363
REMARK  143  A    between atoms: _363  and  _364
REMARK  144  A    between atoms: _363  and  _366
REMARK  145  A    between atoms: _366  and  _367
REMARK  146  A    between atoms: _372  and  _374
REMARK  147  A    between atoms: _374  and  _375
REMARK  148  A    between atoms: _374  and  _377
REMARK  149  A    between atoms: _377  and  _378
REMARK  150  A    between atoms: _388  and  _390
REMARK  151  A    between atoms: _390  and  _391
REMARK  152  A    between atoms: _390  and  _393
REMARK  153  A    between atoms: _393  and  _394
REMARK  154  A    between atoms: _400  and  _402
REMARK  155  A    between atoms: _402  and  _403
REMARK  156  A    between atoms: _402  and  _405
REMARK  157  A    between atoms: _405  and  _406
REMARK  158  A    between atoms: _409  and  _411
REMARK  159  A    between atoms: _411  and  _412
REMARK  160  A    between atoms: _411  and  _414
REMARK  161  A    between atoms: _414  and  _415
REMARK  162  A    between atoms: _418  and  _420
REMARK  163  A    between atoms: _420  and  _421
REMARK  164  A    between atoms: _420  and  _423
REMARK  165  A    between atoms: _423  and  _424
REMARK  166  A    between atoms: _424  and  _425
REMARK  167  A    between atoms: _425  and  _426
REMARK  168  A    between atoms: _435  and  _437
REMARK  169  A    between atoms: _437  and  _438
REMARK  170  A    between atoms: _437  and  _440
REMARK  171  A    between atoms: _440  and  _441
REMARK  172  A    between atoms: _446  and  _448
REMARK  173  A    between atoms: _448  and  _449
REMARK  174  A    between atoms: _448  and  _451
REMARK  175  A    between atoms: _451  and  _452
REMARK  176  A    between atoms: _452  and  _453
REMARK  177  A    between atoms: _453  and  _454
REMARK  178  A    between atoms: _463  and  _465
REMARK  179  A    between atoms: _465  and  _466
REMARK  180  A    between atoms: _469  and  _471
REMARK  181  A    between atoms: _471  and  _472
REMARK  182  A    between atoms: _474  and  _476
REMARK  183  A    between atoms: _476  and  _477
REMARK  184  A    between atoms: _476  and  _479
REMARK  185  A    between atoms: _479  and  _480
REMARK  186  A    between atoms: _490  and  _492
REMARK  187  A    between atoms: _492  and  _493
REMARK  188  A    between atoms: _492  and  _495
REMARK  189  A    between atoms: _495  and  _496
REMARK  190  A    between atoms: _497  and  _499
REMARK  191  A    between atoms: _499  and  _500
REMARK  192  A    between atoms: _503  and  _505
REMARK  193  A    between atoms: _505  and  _506
REMARK  194  A    between atoms: _505  and  _508
REMARK  195  A    between atoms: _508  and  _509
REMARK  196  A    between atoms: _512  and  _514
REMARK  197  A    between atoms: _514  and  _515
REMARK  198  A    between atoms: _514  and  _517
REMARK  199  A    between atoms: _517  and  _518
REMARK  200  A    between atoms: _523  and  _524
REMARK  201  A    between atoms: _526  and  _528
REMARK  202  A    between atoms: _528  and  _529
REMARK  203  A    between atoms: _528  and  _531
REMARK  204  A    between atoms: _531  and  _532
REMARK  205  A    between atoms: _534  and  _536
REMARK  206  A    between atoms: _536  and  _537
REMARK  207  A    between atoms: _536  and  _539
REMARK  208  A    between atoms: _539  and  _540
REMARK  209  A    between atoms: _546  and  _548
REMARK  210  A    between atoms: _548  and  _549
REMARK  211  A    between atoms: _548  and  _551
REMARK  212  A    between atoms: _551  and  _552
REMARK  213  A    between atoms: _555  and  _557
REMARK  214  A    between atoms: _557  and  _558
REMARK  215  A    between atoms: _557  and  _560
REMARK  216  A    between atoms: _560  and  _561
REMARK  217  A    between atoms: _563  and  _565
REMARK  218  A    between atoms: _565  and  _566
REMARK  219  A    between atoms: _565  and  _568
REMARK  220  A    between atoms: _568  and  _569
REMARK  221  A    between atoms: _574  and  _576
REMARK  222  A    between atoms: _576  and  _577
REMARK  223  A    between atoms: _576  and  _579
REMARK  224  A    between atoms: _579  and  _580
REMARK  225  A    between atoms: _585  and  _587
REMARK  226  A    between atoms: _587  and  _588
REMARK  227  A    between atoms: _587  and  _590
REMARK  228  A    between atoms: _590  and  _591
REMARK  229  A    between atoms: _594  and  _596
REMARK  230  A    between atoms: _596  and  _597
REMARK  231  A    between atoms: _600  and  _602
REMARK  232  A    between atoms: _602  and  _603
REMARK  233  A    between atoms: _602  and  _605
REMARK  234  A    between atoms: _605  and  _606
REMARK  235  A    between atoms: _611  and  _612
REMARK  236  A    between atoms: _614  and  _616
REMARK  237  A    between atoms: _616  and  _617
REMARK  238  A    between atoms: _616  and  _619
REMARK  239  A    between atoms: _619  and  _620
REMARK  240  A    between atoms: _625  and  _626
REMARK  241  A    between atoms: _628  and  _630
REMARK  242  A    between atoms: _630  and  _631
REMARK  243  A    between atoms: _630  and  _633
REMARK  244  A    between atoms: _636  and  _638
REMARK  245  A    between atoms: _638  and  _639
REMARK  246  A    between atoms: _638  and  _641
REMARK  247  A    between atoms: _641  and  _642
REMARK  248  A    between atoms: _647  and  _649
REMARK  249  A    between atoms: _649  and  _650
REMARK  250  A    between atoms: _653  and  _655
REMARK  251  A    between atoms: _655  and  _656
REMARK  252  A    between atoms: _655  and  _658
REMARK  253  A    between atoms: _658  and  _659
REMARK  254  A    between atoms: _659  and  _660
REMARK  255  A    between atoms: _660  and  _661
REMARK  256  A    between atoms: _670  and  _672
REMARK  257  A    between atoms: _672  and  _673
REMARK  258  A    between atoms: _672  and  _675
REMARK  259  A    between atoms: _675  and  _676
REMARK  260  A    between atoms: _679  and  _681
REMARK  261  A    between atoms: _681  and  _682
REMARK  262  A    between atoms: _681  and  _684
REMARK  263  A    between atoms: _684  and  _685
REMARK  264  A    between atoms: _688  and  _690
REMARK  265  A    between atoms: _690  and  _691
REMARK  266  A    between atoms: _690  and  _693
REMARK  267  A    between atoms: _693  and  _694
REMARK  268  A    between atoms: _724  and  _725
REMARK  269  A    between atoms: _725  and  _731
REMARK                            x       y       z     vdW  Elec       q    Type
REMARK                         _______ _______ _______ _____ _____    ______ ____
ROOT
ATOM      1  O   UNL     1       7.178  19.954  23.767  0.00  0.00    +0.000 OA
ENDROOT
BRANCH   1   2
ATOM      2  O   UNL     1       6.956  19.639  22.200  0.00  0.00    +0.000 OA
ATOM      3  O   UNL     1       6.370  20.927  21.768  0.00  0.00    +0.000 OA
ENDBRANCH   1   2
BRANCH   1   4
ATOM      4  O   UNL     1       7.922  19.670  24.821  0.00  0.00    +0.000 OA
ATOM      5  O   UNL     1       8.313  20.101  25.697  0.00  0.00    +0.000 OA
ENDBRANCH   1   4
TORSDOF 2
REMARK  Name = ../refined-set-2016/1b3h/1b3h_pocket.pdb
REMARK  269 active torsions:
REMARK  status: ('A' for Active; 'I' for Inactive)
REMARK    1  A    between atoms: _1  and  _3
REMARK    2  A    between atoms: _3  and  _4
REMARK    3  A    between atoms: _3  and  _6
REMARK    4  A    between atoms: _6  and  _7
REMARK    5  A    between atoms: _12  and  _14
REMARK    6  A    between atoms: _14  and  _15
REMARK    7  A    between atoms: _17  and  _19
REMARK    8  A    between atoms: _19  and  _20
REMARK    9  A    between atoms: _19  and  _22
REMARK   10  A    between atoms: _22  and  _23
REMARK   11  A    between atoms: _25  and  _27
REMARK   12  A    between atoms: _27  and  _28
REMARK   13  A    between atoms: _27  and  _30
REMARK   14  A    between atoms: _30  and  _31
REMARK   15  A    between atoms: _31  and  _32
REMARK   16  A    between atoms: _37  and  _39
REMARK   17  A    between atoms: _39  and  _40
REMARK   18  A    between atoms: _39  and  _42
REMARK   19  A    between atoms: _42  and  _43
REMARK   20  A    between atoms: _46  and  _48
REMARK   21  A    between atoms: _48  and  _49
REMARK   22  A    between atoms: _48  and  _51
REMARK   23  A    between atoms: _51  and  _52
REMARK   24  A    between atoms: _52  and  _53
REMARK   25  A    between atoms: _56  and  _58
REMARK   26  A    between atoms: _58  and  _59
REMARK   27  A    between atoms: _61  and  _63
REMARK   28  A    between atoms: _63  and  _64
REMARK   29  A    between atoms: _63  and  _66
REMARK   30  A    between atoms: _70  and  _71
REMARK   31  A    between atoms: _76  and  _78
REMARK   32  A    between atoms: _78  and  _79
REMARK   33  A    between atoms: _78  and  _81
REMARK   34  A    between atoms: _81  and  _82
REMARK   35  A    between atoms: _82  and  _83
REMARK   36  A    between atoms: _86  and  _88
REMARK   37  A    between atoms: _88  and  _89
REMARK   38  A    between atoms: _88  and  _91
REMARK   39  A    between atoms: _91  and  _92
REMARK   40  A    between atoms: _94  and  _96
REMARK   41  A    between atoms: _96  and  _97
REMARK   42  A    between atoms: _96  and  _99
REMARK   43  A    between atoms: _99  and  _100
REMARK   44  A    between atoms: _105  and  _107
REMARK   45  A    between atoms: _107  and  _108
REMARK   46  A    between atoms: _107  and  _110
REMARK   47  A    between atoms: _110  and  _111
REMARK   48  A    between atoms: _111  and  _112
REMARK   49  A    between atoms: _112  and  _113
REMARK   50  A    between atoms: _123  and  _124
REMARK   51  A    between atoms: _129  and  _131
REMARK   52  A    between atoms: _131  and  _132
REMARK   53  A    between atoms: _131  and  _134
REMARK   54  A    between atoms: _134  and  _135
REMARK   55  A    between atoms: _140  and  _141
REMARK   56  A    between atoms: _143  and  _145
REMARK   57  A    between atoms: _145  and  _146
REMARK   58  A    between atoms: _145  and  _148
REMARK   59  A    between atoms: _148  and  _149
REMARK   60  A    between atoms: _154  and  _155
REMARK   61  A    between atoms: _157  and  _159
REMARK   62  A    between atoms: _159  and  _160
REMARK   63  A    between atoms: _159  and  _162
REMARK   64  A    between atoms: _162  and  _163
REMARK   65  A    between atoms: _168  and  _169
REMARK   66  A    between atoms: _171  and  _173
REMARK   67  A    between atoms: _173  and  _174
REMARK   68  A    between atoms: _173  and  _176
REMARK   69  A    between atoms: _179  and  _181
REMARK   70  A    between atoms: _181  and  _182
REMARK   71  A    between atoms: _181  and  _184
REMARK   72  A    between atoms: _184  and  _185
REMARK   73  A    between atoms: _191  and  _192
REMARK   74  A    between atoms: _197  and  _199
REMARK   75  A    between atoms: _199  and  _200
REMARK   76  A    between atoms: _199  and  _202
REMARK   77  A    between atoms: _202  and  _203
REMARK   78  A    between atoms: _205  and  _207
REMARK   79  A    between atoms: _207  and  _208
REMARK   80  A    between atoms: _207  and  _210
REMARK   81  A    between atoms: _210  and  _211
REMARK   82  A    between atoms: _216  and  _217
REMARK   83  A    between atoms: _219  and  _221
REMARK   84  A    between atoms: _221  and  _222
REMARK   85  A    between atoms: _221  and  _224
REMARK   86  A    between atoms: _224  and  _225
REMARK   87  A    between atoms: _230  and  _232
REMARK   88  A    between atoms: _232  and  _233
REMARK   89  A    between atoms: _232  and  _235
REMARK   90  A    between atoms: _235  and  _236
REMARK   91  A    between atoms: _241  and  _243
REMARK   92  A    between atoms: _243  and  _244
REMARK   93  A    between atoms: _243  and  _246
REMARK   94  A    between atoms: _246  and  _247
REMARK   95  A    between atoms: _247  and  _248
REMARK   96  A    between atoms: _250  and  _252
REMARK   97  A    between atoms: _252  and  _253
REMARK   98  A    between atoms: _252  and  _255
REMARK   99  A    between atoms: _255  and  _256
REMARK  100  A    between atoms: _261  and  _262
REMARK  101  A    between atoms: _264  and  _266
REMARK  102  A    between atoms: _266  and  _267
REMARK  103  A    between atoms: _266  and  _269
REMARK  104  A    between atoms: _269  and  _270
REMARK  105  A    between atoms: _273  and  _275
REMARK  106  A    between atoms: _275  and  _276
REMARK  107  A    between atoms: _275  and  _278
REMARK  108  A    between atoms: _278  and  _279
REMARK  109  A    between atoms: _279  and  _496
REMARK  110  A    between atoms: _280  and  _282
REMARK  111  A    between atoms: _282  and  _283
REMARK  112  A    between atoms: _282  and  _285
REMARK  113  A    between atoms: _285  and  _286
REMARK  114  A    between atoms: _289  and  _291
REMARK  115  A    between atoms: _291  and  _292
REMARK  116  A    between atoms: _291  and  _294
REMARK  117  A    between atoms: _294  and  _295
REMARK  118  A    between atoms: _300  and  _301
REMARK  119  A    between atoms: _303  and  _305
REMARK  120  A    between atoms: _305  and  _306
REMARK  121  A    between atoms: _305  and  _308
REMARK  122  A    between atoms: _308  and  _309
REMARK  123  A    between atoms: _314  and  _315
REMARK  124  A    between atoms: _317  and  _319
REMARK  125  A    between atoms: _319  and  _320
REMARK  126  A    between atoms: _319  and  _322
REMARK  127  A    between atoms: _322  and  _323
REMARK  128  A    between atoms: _323  and  _324
REMARK  129  A    between atoms: _327  and  _329
REMARK  130  A    between atoms: _329  and  _330
REMARK  131  A    between atoms: _329  and  _332
REMARK  132  A    between atoms: _332  and  _333
REMARK  133  A    between atoms: _338  and  _339
REMARK  134  A    between atoms: _341  and  _343
REMARK  135  A    between atoms: _343  and  _344
REMARK  136  A    between atoms: _343  and  _346
REMARK  137  A    between atoms: _346  and  _347
REMARK  138  A    between atoms: _352  and  _354
REMARK  139  A    between atoms: _354  and  _355
REMARK  140  A    between atoms: _354  and  _357
REMARK  141  A    between atoms: _357  and  _358
REMARK  142  A    between atoms: _361  and  _363
REMARK  143  A    between atoms: _363  and  _364
REMARK  144  A    between atoms: _363  and  _366
REMARK  145  A    between atoms: _366  and  _367
REMARK  146  A    between atoms: _372  and  _374
REMARK  147  A    between atoms: _374  and  _375
REMARK  148  A    between atoms: _374  and  _377
REMARK  149  A    between atoms: _377  and  _378
REMARK  150  A    between atoms: _388  and  _390
REMARK  151  A    between atoms: _390  and  _391
REMARK  152  A    between atoms: _390  and  _393
REMARK  153  A    between atoms: _393  and  _394
REMARK  154  A    between atoms: _400  and  _402
REMARK  155  A    between atoms: _402  and  _403
REMARK  156  A    between atoms: _402  and  _405
REMARK  157  A    between atoms: _405  and  _406
REMARK  158  A    between atoms: _409  and  _411
REMARK  159  A    between atoms: _411  and  _412
REMARK  160  A    between atoms: _411  and  _414
REMARK  161  A    between atoms: _414  and  _415
REMARK  162  A    between atoms: _418  and  _420
REMARK  163  A    between atoms: _420  and  _421
REMARK  164  A    between atoms: _420  and  _423
REMARK  165  A    between atoms: _423  and  _424
REMARK  166  A    between atoms: _424  and  _425
REMARK  167  A    between atoms: _425  and  _426
REMARK  168  A    between atoms: _435  and  _437
REMARK  169  A    between atoms: _437  and  _438
REMARK  170  A    between atoms: _437  and  _440
REMARK  171  A    between atoms: _440  and  _441
REMARK  172  A    between atoms: _446  and  _448
REMARK  173  A    between atoms: _448  and  _449
REMARK  174  A    between atoms: _448  and  _451
REMARK  175  A    between atoms: _451  and  _452
REMARK  176  A    between atoms: _452  and  _453
REMARK  177  A    between atoms: _453  and  _454
REMARK  178  A    between atoms: _463  and  _465
REMARK  179  A    between atoms: _465  and  _466
REMARK  180  A    between atoms: _469  and  _471
REMARK  181  A    between atoms: _471  and  _472
REMARK  182  A    between atoms: _474  and  _476
REMARK  183  A    between atoms: _476  and  _477
REMARK  184  A    between atoms: _476  and  _479
REMARK  185  A    between atoms: _479  and  _480
REMARK  186  A    between atoms: _490  and  _492
REMARK  187  A    between atoms: _492  and  _493
REMARK  188  A    between atoms: _492  and  _495
REMARK  189  A    between atoms: _495  and  _496
REMARK  190  A    between atoms: _497  and  _499
REMARK  191  A    between atoms: _499  and  _500
REMARK  192  A    between atoms: _503  and  _505
REMARK  193  A    between atoms: _505  and  _506
REMARK  194  A    between atoms: _505  and  _508
REMARK  195  A    between atoms: _508  and  _509
REMARK  196  A    between atoms: _512  and  _514
REMARK  197  A    between atoms: _514  and  _515
REMARK  198  A    between atoms: _514  and  _517
REMARK  199  A    between atoms: _517  and  _518
REMARK  200  A    between atoms: _523  and  _524
REMARK  201  A    between atoms: _526  and  _528
REMARK  202  A    between atoms: _528  and  _529
REMARK  203  A    between atoms: _528  and  _531
REMARK  204  A    between atoms: _531  and  _532
REMARK  205  A    between atoms: _534  and  _536
REMARK  206  A    between atoms: _536  and  _537
REMARK  207  A    between atoms: _536  and  _539
REMARK  208  A    between atoms: _539  and  _540
REMARK  209  A    between atoms: _546  and  _548
REMARK  210  A    between atoms: _548  and  _549
REMARK  211  A    between atoms: _548  and  _551
REMARK  212  A    between atoms: _551  and  _552
REMARK  213  A    between atoms: _555  and  _557
REMARK  214  A    between atoms: _557  and  _558
REMARK  215  A    between atoms: _557  and  _560
REMARK  216  A    between atoms: _560  and  _561
REMARK  217  A    between atoms: _563  and  _565
REMARK  218  A    between atoms: _565  and  _566
REMARK  219  A    between atoms: _565  and  _568
REMARK  220  A    between atoms: _568  and  _569
REMARK  221  A    between atoms: _574  and  _576
REMARK  222  A    between atoms: _576  and  _577
REMARK  223  A    between atoms: _576  and  _579
REMARK  224  A    between atoms: _579  and  _580
REMARK  225  A    between atoms: _585  and  _587
REMARK  226  A    between atoms: _587  and  _588
REMARK  227  A    between atoms: _587  and  _590
REMARK  228  A    between atoms: _590  and  _591
REMARK  229  A    between atoms: _594  and  _596
REMARK  230  A    between atoms: _596  and  _597
REMARK  231  A    between atoms: _600  and  _602
REMARK  232  A    between atoms: _602  and  _603
REMARK  233  A    between atoms: _602  and  _605
REMARK  234  A    between atoms: _605  and  _606
REMARK  235  A    between atoms: _611  and  _612
REMARK  236  A    between atoms: _614  and  _616
REMARK  237  A    between atoms: _616  and  _617
REMARK  238  A    between atoms: _616  and  _619
REMARK  239  A    between atoms: _619  and  _620
REMARK  240  A    between atoms: _625  and  _626
REMARK  241  A    between atoms: _628  and  _630
REMARK  242  A    between atoms: _630  and  _631
REMARK  243  A    between atoms: _630  and  _633
REMARK  244  A    between atoms: _636  and  _638
REMARK  245  A    between atoms: _638  and  _639
REMARK  246  A    between atoms: _638  and  _641
REMARK  247  A    between atoms: _641  and  _642
REMARK  248  A    between atoms: _647  and  _649
REMARK  249  A    between atoms: _649  and  _650
REMARK  250  A    between atoms: _653  and  _655
REMARK  251  A    between atoms: _655  and  _656
REMARK  252  A    between atoms: _655  and  _658
REMARK  253  A    between atoms: _658  and  _659
REMARK  254  A    between atoms: _659  and  _660
REMARK  255  A    between atoms: _660  and  _661
REMARK  256  A    between atoms: _670  and  _672
REMARK  257  A    between atoms: _672  and  _673
REMARK  258  A    between atoms: _672  and  _675
REMARK  259  A    between atoms: _675  and  _676
REMARK  260  A    between atoms: _679  and  _681
REMARK  261  A    between atoms: _681  and  _682
REMARK  262  A    between atoms: _681  and  _684
REMARK  263  A    between atoms: _684  and  _685
REMARK  264  A    between atoms: _688  and  _690
REMARK  265  A    between atoms: _690  and  _691
REMARK  266  A    between atoms: _690  and  _693
REMARK  267  A    between atoms: _693  and  _694
REMARK  268  A    between atoms: _724  and  _725
REMARK  269  A    between atoms: _725  and  _731
REMARK                            x       y       z     vdW  Elec       q    Type
REMARK                         _______ _______ _______ _____ _____    ______ ____
ROOT
ATOM      1  O   HOH     1       8.804  13.506   7.165  0.00  0.00    +0.000 OA
ENDROOT
TORSDOF 0
REMARK  Name = ../refined-set-2016/1b3h/1b3h_pocket.pdb
REMARK  269 active torsions:
REMARK  status: ('A' for Active; 'I' for Inactive)
REMARK    1  A    between atoms: _1  and  _3
REMARK    2  A    between atoms: _3  and  _4
REMARK    3  A    between atoms: _3  and  _6
REMARK    4  A    between atoms: _6  and  _7
REMARK    5  A    between atoms: _12  and  _14
REMARK    6  A    between atoms: _14  and  _15
REMARK    7  A    between atoms: _17  and  _19
REMARK    8  A    between atoms: _19  and  _20
REMARK    9  A    between atoms: _19  and  _22
REMARK   10  A    between atoms: _22  and  _23
REMARK   11  A    between atoms: _25  and  _27
REMARK   12  A    between atoms: _27  and  _28
REMARK   13  A    between atoms: _27  and  _30
REMARK   14  A    between atoms: _30  and  _31
REMARK   15  A    between atoms: _31  and  _32
REMARK   16  A    between atoms: _37  and  _39
REMARK   17  A    between atoms: _39  and  _40
REMARK   18  A    between atoms: _39  and  _42
REMARK   19  A    between atoms: _42  and  _43
REMARK   20  A    between atoms: _46  and  _48
REMARK   21  A    between atoms: _48  and  _49
REMARK   22  A    between atoms: _48  and  _51
REMARK   23  A    between atoms: _51  and  _52
REMARK   24  A    between atoms: _52  and  _53
REMARK   25  A    between atoms: _56  and  _58
REMARK   26  A    between atoms: _58  and  _59
REMARK   27  A    between atoms: _61  and  _63
REMARK   28  A    between atoms: _63  and  _64
REMARK   29  A    between atoms: _63  and  _66
REMARK   30  A    between atoms: _70  and  _71
REMARK   31  A    between atoms: _76  and  _78
REMARK   32  A    between atoms: _78  and  _79
REMARK   33  A    between atoms: _78  and  _81
REMARK   34  A    between atoms: _81  and  _82
REMARK   35  A    between atoms: _82  and  _83
REMARK   36  A    between atoms: _86  and  _88
REMARK   37  A    between atoms: _88  and  _89
REMARK   38  A    between atoms: _88  and  _91
REMARK   39  A    between atoms: _91  and  _92
REMARK   40  A    between atoms: _94  and  _96
REMARK   41  A    between atoms: _96  and  _97
REMARK   42  A    between atoms: _96  and  _99
REMARK   43  A    between atoms: _99  and  _100
REMARK   44  A    between atoms: _105  and  _107
REMARK   45  A    between atoms: _107  and  _108
REMARK   46  A    between atoms: _107  and  _110
REMARK   47  A    between atoms: _110  and  _111
REMARK   48  A    between atoms: _111  and  _112
REMARK   49  A    between atoms: _112  and  _113
REMARK   50  A    between atoms: _123  and  _124
REMARK   51  A    between atoms: _129  and  _131
REMARK   52  A    between atoms: _131  and  _132
REMARK   53  A    between atoms: _131  and  _134
REMARK   54  A    between atoms: _134  and  _135
REMARK   55  A    between atoms: _140  and  _141
REMARK   56  A    between atoms: _143  and  _145
REMARK   57  A    between atoms: _145  and  _146
REMARK   58  A    between atoms: _145  and  _148
REMARK   59  A    between atoms: _148  and  _149
REMARK   60  A    between atoms: _154  and  _155
REMARK   61  A    between atoms: _157  and  _159
REMARK   62  A    between atoms: _159  and  _160
REMARK   63  A    between atoms: _159  and  _162
REMARK   64  A    between atoms: _162  and  _163
REMARK   65  A    between atoms: _168  and  _169
REMARK   66  A    between atoms: _171  and  _173
REMARK   67  A    between atoms: _173  and  _174
REMARK   68  A    between atoms: _173  and  _176
REMARK   69  A    between atoms: _179  and  _181
REMARK   70  A    between atoms: _181  and  _182
REMARK   71  A    between atoms: _181  and  _184
REMARK   72  A    between atoms: _184  and  _185
REMARK   73  A    between atoms: _191  and  _192
REMARK   74  A    between atoms: _197  and  _199
REMARK   75  A    between atoms: _199  and  _200
REMARK   76  A    between atoms: _199  and  _202
REMARK   77  A    between atoms: _202  and  _203
REMARK   78  A    between atoms: _205  and  _207
REMARK   79  A    between atoms: _207  and  _208
REMARK   80  A    between atoms: _207  and  _210
REMARK   81  A    between atoms: _210  and  _211
REMARK   82  A    between atoms: _216  and  _217
REMARK   83  A    between atoms: _219  and  _221
REMARK   84  A    between atoms: _221  and  _222
REMARK   85  A    between atoms: _221  and  _224
REMARK   86  A    between atoms: _224  and  _225
REMARK   87  A    between atoms: _230  and  _232
REMARK   88  A    between atoms: _232  and  _233
REMARK   89  A    between atoms: _232  and  _235
REMARK   90  A    between atoms: _235  and  _236
REMARK   91  A    between atoms: _241  and  _243
REMARK   92  A    between atoms: _243  and  _244
REMARK   93  A    between atoms: _243  and  _246
REMARK   94  A    between atoms: _246  and  _247
REMARK   95  A    between atoms: _247  and  _248
REMARK   96  A    between atoms: _250  and  _252
REMARK   97  A    between atoms: _252  and  _253
REMARK   98  A    between atoms: _252  and  _255
REMARK   99  A    between atoms: _255  and  _256
REMARK  100  A    between atoms: _261  and  _262
REMARK  101  A    between atoms: _264  and  _266
REMARK  102  A    between atoms: _266  and  _267
REMARK  103  A    between atoms: _266  and  _269
REMARK  104  A    between atoms: _269  and  _270
REMARK  105  A    between atoms: _273  and  _275
REMARK  106  A    between atoms: _275  and  _276
REMARK  107  A    between atoms: _275  and  _278
REMARK  108  A    between atoms: _278  and  _279
REMARK  109  A    between atoms: _279  and  _496
REMARK  110  A    between atoms: _280  and  _282
REMARK  111  A    between atoms: _282  and  _283
REMARK  112  A    between atoms: _282  and  _285
REMARK  113  A    between atoms: _285  and  _286
REMARK  114  A    between atoms: _289  and  _291
REMARK  115  A    between atoms: _291  and  _292
REMARK  116  A    between atoms: _291  and  _294
REMARK  117  A    between atoms: _294  and  _295
REMARK  118  A    between atoms: _300  and  _301
REMARK  119  A    between atoms: _303  and  _305
REMARK  120  A    between atoms: _305  and  _306
REMARK  121  A    between atoms: _305  and  _308
REMARK  122  A    between atoms: _308  and  _309
REMARK  123  A    between atoms: _314  and  _315
REMARK  124  A    between atoms: _317  and  _319
REMARK  125  A    between atoms: _319  and  _320
REMARK  126  A    between atoms: _319  and  _322
REMARK  127  A    between atoms: _322  and  _323
REMARK  128  A    between atoms: _323  and  _324
REMARK  129  A    between atoms: _327  and  _329
REMARK  130  A    between atoms: _329  and  _330
REMARK  131  A    between atoms: _329  and  _332
REMARK  132  A    between atoms: _332  and  _333
REMARK  133  A    between atoms: _338  and  _339
REMARK  134  A    between atoms: _341  and  _343
REMARK  135  A    between atoms: _343  and  _344
REMARK  136  A    between atoms: _343  and  _346
REMARK  137  A    between atoms: _346  and  _347
REMARK  138  A    between atoms: _352  and  _354
REMARK  139  A    between atoms: _354  and  _355
REMARK  140  A    between atoms: _354  and  _357
REMARK  141  A    between atoms: _357  and  _358
REMARK  142  A    between atoms: _361  and  _363
REMARK  143  A    between atoms: _363  and  _364
REMARK  144  A    between atoms: _363  and  _366
REMARK  145  A    between atoms: _366  and  _367
REMARK  146  A    between atoms: _372  and  _374
REMARK  147  A    between atoms: _374  and  _375
REMARK  148  A    between atoms: _374  and  _377
REMARK  149  A    between atoms: _377  and  _378
REMARK  150  A    between atoms: _388  and  _390
REMARK  151  A    between atoms: _390  and  _391
REMARK  152  A    between atoms: _390  and  _393
REMARK  153  A    between atoms: _393  and  _394
REMARK  154  A    between atoms: _400  and  _402
REMARK  155  A    between atoms: _402  and  _403
REMARK  156  A    between atoms: _402  and  _405
REMARK  157  A    between atoms: _405  and  _406
REMARK  158  A    between atoms: _409  and  _411
REMARK  159  A    between atoms: _411  and  _412
REMARK  160  A    between atoms: _411  and  _414
REMARK  161  A    between atoms: _414  and  _415
REMARK  162  A    between atoms: _418  and  _420
REMARK  163  A    between atoms: _420  and  _421
REMARK  164  A    between atoms: _420  and  _423
REMARK  165  A    between atoms: _423  and  _424
REMARK  166  A    between atoms: _424  and  _425
REMARK  167  A    between atoms: _425  and  _426
REMARK  168  A    between atoms: _435  and  _437
REMARK  169  A    between atoms: _437  and  _438
REMARK  170  A    between atoms: _437  and  _440
REMARK  171  A    between atoms: _440  and  _441
REMARK  172  A    between atoms: _446  and  _448
REMARK  173  A    between atoms: _448  and  _449
REMARK  174  A    between atoms: _448  and  _451
REMARK  175  A    between atoms: _451  and  _452
REMARK  176  A    between atoms: _452  and  _453
REMARK  177  A    between atoms: _453  and  _454
REMARK  178  A    between atoms: _463  and  _465
REMARK  179  A    between atoms: _465  and  _466
REMARK  180  A    between atoms: _469  and  _471
REMARK  181  A    between atoms: _471  and  _472
REMARK  182  A    between atoms: _474  and  _476
REMARK  183  A    between atoms: _476  and  _477
REMARK  184  A    between atoms: _476  and  _479
REMARK  185  A    between atoms: _479  and  _480
REMARK  186  A    between atoms: _490  and  _492
REMARK  187  A    between atoms: _492  and  _493
REMARK  188  A    between atoms: _492  and  _495
REMARK  189  A    between atoms: _495  and  _496
REMARK  190  A    between atoms: _497  and  _499
REMARK  191  A    between atoms: _499  and  _500
REMARK  192  A    between atoms: _503  and  _505
REMARK  193  A    between atoms: _505  and  _506
REMARK  194  A    between atoms: _505  and  _508
REMARK  195  A    between atoms: _508  and  _509
REMARK  196  A    between atoms: _512  and  _514
REMARK  197  A    between atoms: _514  and  _515
REMARK  198  A    between atoms: _514  and  _517
REMARK  199  A    between atoms: _517  and  _518
REMARK  200  A    between atoms: _523  and  _524
REMARK  201  A    between atoms: _526  and  _528
REMARK  202  A    between atoms: _528  and  _529
REMARK  203  A    between atoms: _528  and  _531
REMARK  204  A    between atoms: _531  and  _532
REMARK  205  A    between atoms: _534  and  _536
REMARK  206  A    between atoms: _536  and  _537
REMARK  207  A    between atoms: _536  and  _539
REMARK  208  A    between atoms: _539  and  _540
REMARK  209  A    between atoms: _546  and  _548
REMARK  210  A    between atoms: _548  and  _549
REMARK  211  A    between atoms: _548  and  _551
REMARK  212  A    between atoms: _551  and  _552
REMARK  213  A    between atoms: _555  and  _557
REMARK  214  A    between atoms: _557  and  _558
REMARK  215  A    between atoms: _557  and  _560
REMARK  216  A    between atoms: _560  and  _561
REMARK  217  A    between atoms: _563  and  _565
REMARK  218  A    between atoms: _565  and  _566
REMARK  219  A    between atoms: _565  and  _568
REMARK  220  A    between atoms: _568  and  _569
REMARK  221  A    between atoms: _574  and  _576
REMARK  222  A    between atoms: _576  and  _577
REMARK  223  A    between atoms: _576  and  _579
REMARK  224  A    between atoms: _579  and  _580
REMARK  225  A    between atoms: _585  and  _587
REMARK  226  A    between atoms: _587  and  _588
REMARK  227  A    between atoms: _587  and  _590
REMARK  228  A    between atoms: _590  and  _591
REMARK  229  A    between atoms: _594  and  _596
REMARK  230  A    between atoms: _596  and  _597
REMARK  231  A    between atoms: _600  and  _602
REMARK  232  A    between atoms: _602  and  _603
REMARK  233  A    between atoms: _602  and  _605
REMARK  234  A    between atoms: _605  and  _606
REMARK  235  A    between atoms: _611  and  _612
REMARK  236  A    between atoms: _614  and  _616
REMARK  237  A    between atoms: _616  and  _617
REMARK  238  A    between atoms: _616  and  _619
REMARK  239  A    between atoms: _619  and  _620
REMARK  240  A    between atoms: _625  and  _626
REMARK  241  A    between atoms: _628  and  _630
REMARK  242  A    between atoms: _630  and  _631
REMARK  243  A    between atoms: _630  and  _633
REMARK  244  A    between atoms: _636  and  _638
REMARK  245  A    between atoms: _638  and  _639
REMARK  246  A    between atoms: _638  and  _641
REMARK  247  A    between atoms: _641  and  _642
REMARK  248  A    between atoms: _647  and  _649
REMARK  249  A    between atoms: _649  and  _650
REMARK  250  A    between atoms: _653  and  _655
REMARK  251  A    between atoms: _655  and  _656
REMARK  252  A    between atoms: _655  and  _658
REMARK  253  A    between atoms: _658  and  _659
REMARK  254  A    between atoms: _659  and  _660
REMARK  255  A    between atoms: _660  and  _661
REMARK  256  A    between atoms: _670  and  _672
REMARK  257  A    between atoms: _672  and  _673
REMARK  258  A    between atoms: _672  and  _675
REMARK  259  A    between atoms: _675  and  _676
REMARK  260  A    between atoms: _679  and  _681
REMARK  261  A    between atoms: _681  and  _682
REMARK  262  A    between atoms: _681  and  _684
REMARK  263  A    between atoms: _684  and  _685
REMARK  264  A    between atoms: _688  and  _690
REMARK  265  A    between atoms: _690  and  _691
REMARK  266  A    between atoms: _690  and  _693
REMARK  267  A    between atoms: _693  and  _694
REMARK  268  A    between atoms: _724  and  _725
REMARK  269  A    between atoms: _725  and  _731
REMARK                            x       y       z     vdW  Elec       q    Type
REMARK                         _______ _______ _______ _____ _____    ______ ____
ROOT
ATOM      1  O   HOH     1       5.701  20.330  24.409  0.00  0.00    +0.000 OA
ENDROOT
TORSDOF 0
REMARK  Name = ../refined-set-2016/1b3h/1b3h_pocket.pdb
REMARK  269 active torsions:
REMARK  status: ('A' for Active; 'I' for Inactive)
REMARK    1  A    between atoms: _1  and  _3
REMARK    2  A    between atoms: _3  and  _4
REMARK    3  A    between atoms: _3  and  _6
REMARK    4  A    between atoms: _6  and  _7
REMARK    5  A    between atoms: _12  and  _14
REMARK    6  A    between atoms: _14  and  _15
REMARK    7  A    between atoms: _17  and  _19
REMARK    8  A    between atoms: _19  and  _20
REMARK    9  A    between atoms: _19  and  _22
REMARK   10  A    between atoms: _22  and  _23
REMARK   11  A    between atoms: _25  and  _27
REMARK   12  A    between atoms: _27  and  _28
REMARK   13  A    between atoms: _27  and  _30
REMARK   14  A    between atoms: _30  and  _31
REMARK   15  A    between atoms: _31  and  _32
REMARK   16  A    between atoms: _37  and  _39
REMARK   17  A    between atoms: _39  and  _40
REMARK   18  A    between atoms: _39  and  _42
REMARK   19  A    between atoms: _42  and  _43
REMARK   20  A    between atoms: _46  and  _48
REMARK   21  A    between atoms: _48  and  _49
REMARK   22  A    between atoms: _48  and  _51
REMARK   23  A    between atoms: _51  and  _52
REMARK   24  A    between atoms: _52  and  _53
REMARK   25  A    between atoms: _56  and  _58
REMARK   26  A    between atoms: _58  and  _59
REMARK   27  A    between atoms: _61  and  _63
REMARK   28  A    between atoms: _63  and  _64
REMARK   29  A    between atoms: _63  and  _66
REMARK   30  A    between atoms: _70  and  _71
REMARK   31  A    between atoms: _76  and  _78
REMARK   32  A    between atoms: _78  and  _79
REMARK   33  A    between atoms: _78  and  _81
REMARK   34  A    between atoms: _81  and  _82
REMARK   35  A    between atoms: _82  and  _83
REMARK   36  A    between atoms: _86  and  _88
REMARK   37  A    between atoms: _88  and  _89
REMARK   38  A    between atoms: _88  and  _91
REMARK   39  A    between atoms: _91  and  _92
REMARK   40  A    between atoms: _94  and  _96
REMARK   41  A    between atoms: _96  and  _97
REMARK   42  A    between atoms: _96  and  _99
REMARK   43  A    between atoms: _99  and  _100
REMARK   44  A    between atoms: _105  and  _107
REMARK   45  A    between atoms: _107  and  _108
REMARK   46  A    between atoms: _107  and  _110
REMARK   47  A    between atoms: _110  and  _111
REMARK   48  A    between atoms: _111  and  _112
REMARK   49  A    between atoms: _112  and  _113
REMARK   50  A    between atoms: _123  and  _124
REMARK   51  A    between atoms: _129  and  _131
REMARK   52  A    between atoms: _131  and  _132
REMARK   53  A    between atoms: _131  and  _134
REMARK   54  A    between atoms: _134  and  _135
REMARK   55  A    between atoms: _140  and  _141
REMARK   56  A    between atoms: _143  and  _145
REMARK   57  A    between atoms: _145  and  _146
REMARK   58  A    between atoms: _145  and  _148
REMARK   59  A    between atoms: _148  and  _149
REMARK   60  A    between atoms: _154  and  _155
REMARK   61  A    between atoms: _157  and  _159
REMARK   62  A    between atoms: _159  and  _160
REMARK   63  A    between atoms: _159  and  _162
REMARK   64  A    between atoms: _162  and  _163
REMARK   65  A    between atoms: _168  and  _169
REMARK   66  A    between atoms: _171  and  _173
REMARK   67  A    between atoms: _173  and  _174
REMARK   68  A    between atoms: _173  and  _176
REMARK   69  A    between atoms: _179  and  _181
REMARK   70  A    between atoms: _181  and  _182
REMARK   71  A    between atoms: _181  and  _184
REMARK   72  A    between atoms: _184  and  _185
REMARK   73  A    between atoms: _191  and  _192
REMARK   74  A    between atoms: _197  and  _199
REMARK   75  A    between atoms: _199  and  _200
REMARK   76  A    between atoms: _199  and  _202
REMARK   77  A    between atoms: _202  and  _203
REMARK   78  A    between atoms: _205  and  _207
REMARK   79  A    between atoms: _207  and  _208
REMARK   80  A    between atoms: _207  and  _210
REMARK   81  A    between atoms: _210  and  _211
REMARK   82  A    between atoms: _216  and  _217
REMARK   83  A    between atoms: _219  and  _221
REMARK   84  A    between atoms: _221  and  _222
REMARK   85  A    between atoms: _221  and  _224
REMARK   86  A    between atoms: _224  and  _225
REMARK   87  A    between atoms: _230  and  _232
REMARK   88  A    between atoms: _232  and  _233
REMARK   89  A    between atoms: _232  and  _235
REMARK   90  A    between atoms: _235  and  _236
REMARK   91  A    between atoms: _241  and  _243
REMARK   92  A    between atoms: _243  and  _244
REMARK   93  A    between atoms: _243  and  _246
REMARK   94  A    between atoms: _246  and  _247
REMARK   95  A    between atoms: _247  and  _248
REMARK   96  A    between atoms: _250  and  _252
REMARK   97  A    between atoms: _252  and  _253
REMARK   98  A    between atoms: _252  and  _255
REMARK   99  A    between atoms: _255  and  _256
REMARK  100  A    between atoms: _261  and  _262
REMARK  101  A    between atoms: _264  and  _266
REMARK  102  A    between atoms: _266  and  _267
REMARK  103  A    between atoms: _266  and  _269
REMARK  104  A    between atoms: _269  and  _270
REMARK  105  A    between atoms: _273  and  _275
REMARK  106  A    between atoms: _275  and  _276
REMARK  107  A    between atoms: _275  and  _278
REMARK  108  A    between atoms: _278  and  _279
REMARK  109  A    between atoms: _279  and  _496
REMARK  110  A    between atoms: _280  and  _282
REMARK  111  A    between atoms: _282  and  _283
REMARK  112  A    between atoms: _282  and  _285
REMARK  113  A    between atoms: _285  and  _286
REMARK  114  A    between atoms: _289  and  _291
REMARK  115  A    between atoms: _291  and  _292
REMARK  116  A    between atoms: _291  and  _294
REMARK  117  A    between atoms: _294  and  _295
REMARK  118  A    between atoms: _300  and  _301
REMARK  119  A    between atoms: _303  and  _305
REMARK  120  A    between atoms: _305  and  _306
REMARK  121  A    between atoms: _305  and  _308
REMARK  122  A    between atoms: _308  and  _309
REMARK  123  A    between atoms: _314  and  _315
REMARK  124  A    between atoms: _317  and  _319
REMARK  125  A    between atoms: _319  and  _320
REMARK  126  A    between atoms: _319  and  _322
REMARK  127  A    between atoms: _322  and  _323
REMARK  128  A    between atoms: _323  and  _324
REMARK  129  A    between atoms: _327  and  _329
REMARK  130  A    between atoms: _329  and  _330
REMARK  131  A    between atoms: _329  and  _332
REMARK  132  A    between atoms: _332  and  _333
REMARK  133  A    between atoms: _338  and  _339
REMARK  134  A    between atoms: _341  and  _343
REMARK  135  A    between atoms: _343  and  _344
REMARK  136  A    between atoms: _343  and  _346
REMARK  137  A    between atoms: _346  and  _347
REMARK  138  A    between atoms: _352  and  _354
REMARK  139  A    between atoms: _354  and  _355
REMARK  140  A    between atoms: _354  and  _357
REMARK  141  A    between atoms: _357  and  _358
REMARK  142  A    between atoms: _361  and  _363
REMARK  143  A    between atoms: _363  and  _364
REMARK  144  A    between atoms: _363  and  _366
REMARK  145  A    between atoms: _366  and  _367
REMARK  146  A    between atoms: _372  and  _374
REMARK  147  A    between atoms: _374  and  _375
REMARK  148  A    between atoms: _374  and  _377
REMARK  149  A    between atoms: _377  and  _378
REMARK  150  A    between atoms: _388  and  _390
REMARK  151  A    between atoms: _390  and  _391
REMARK  152  A    between atoms: _390  and  _393
REMARK  153  A    between atoms: _393  and  _394
REMARK  154  A    between atoms: _400  and  _402
REMARK  155  A    between atoms: _402  and  _403
REMARK  156  A    between atoms: _402  and  _405
REMARK  157  A    between atoms: _405  and  _406
REMARK  158  A    between atoms: _409  and  _411
REMARK  159  A    between atoms: _411  and  _412
REMARK  160  A    between atoms: _411  and  _414
REMARK  161  A    between atoms: _414  and  _415
REMARK  162  A    between atoms: _418  and  _420
REMARK  163  A    between atoms: _420  and  _421
REMARK  164  A    between atoms: _420  and  _423
REMARK  165  A    between atoms: _423  and  _424
REMARK  166  A    between atoms: _424  and  _425
REMARK  167  A    between atoms: _425  and  _426
REMARK  168  A    between atoms: _435  and  _437
REMARK  169  A    between atoms: _437  and  _438
REMARK  170  A    between atoms: _437  and  _440
REMARK  171  A    between atoms: _440  and  _441
REMARK  172  A    between atoms: _446  and  _448
REMARK  173  A    between atoms: _448  and  _449
REMARK  174  A    between atoms: _448  and  _451
REMARK  175  A    between atoms: _451  and  _452
REMARK  176  A    between atoms: _452  and  _453
REMARK  177  A    between atoms: _453  and  _454
REMARK  178  A    between atoms: _463  and  _465
REMARK  179  A    between atoms: _465  and  _466
REMARK  180  A    between atoms: _469  and  _471
REMARK  181  A    between atoms: _471  and  _472
REMARK  182  A    between atoms: _474  and  _476
REMARK  183  A    between atoms: _476  and  _477
REMARK  184  A    between atoms: _476  and  _479
REMARK  185  A    between atoms: _479  and  _480
REMARK  186  A    between atoms: _490  and  _492
REMARK  187  A    between atoms: _492  and  _493
REMARK  188  A    between atoms: _492  and  _495
REMARK  189  A    between atoms: _495  and  _496
REMARK  190  A    between atoms: _497  and  _499
REMARK  191  A    between atoms: _499  and  _500
REMARK  192  A    between atoms: _503  and  _505
REMARK  193  A    between atoms: _505  and  _506
REMARK  194  A    between atoms: _505  and  _508
REMARK  195  A    between atoms: _508  and  _509
REMARK  196  A    between atoms: _512  and  _514
REMARK  197  A    between atoms: _514  and  _515
REMARK  198  A    between atoms: _514  and  _517
REMARK  199  A    between atoms: _517  and  _518
REMARK  200  A    between atoms: _523  and  _524
REMARK  201  A    between atoms: _526  and  _528
REMARK  202  A    between atoms: _528  and  _529
REMARK  203  A    between atoms: _528  and  _531
REMARK  204  A    between atoms: _531  and  _532
REMARK  205  A    between atoms: _534  and  _536
REMARK  206  A    between atoms: _536  and  _537
REMARK  207  A    between atoms: _536  and  _539
REMARK  208  A    between atoms: _539  and  _540
REMARK  209  A    between atoms: _546  and  _548
REMARK  210  A    between atoms: _548  and  _549
REMARK  211  A    between atoms: _548  and  _551
REMARK  212  A    between atoms: _551  and  _552
REMARK  213  A    between atoms: _555  and  _557
REMARK  214  A    between atoms: _557  and  _558
REMARK  215  A    between atoms: _557  and  _560
REMARK  216  A    between atoms: _560  and  _561
REMARK  217  A    between atoms: _563  and  _565
REMARK  218  A    between atoms: _565  and  _566
REMARK  219  A    between atoms: _565  and  _568
REMARK  220  A    between atoms: _568  and  _569
REMARK  221  A    between atoms: _574  and  _576
REMARK  222  A    between atoms: _576  and  _577
REMARK  223  A    between atoms: _576  and  _579
REMARK  224  A    between atoms: _579  and  _580
REMARK  225  A    between atoms: _585  and  _587
REMARK  226  A    between atoms: _587  and  _588
REMARK  227  A    between atoms: _587  and  _590
REMARK  228  A    between atoms: _590  and  _591
REMARK  229  A    between atoms: _594  and  _596
REMARK  230  A    between atoms: _596  and  _597
REMARK  231  A    between atoms: _600  and  _602
REMARK  232  A    between atoms: _602  and  _603
REMARK  233  A    between atoms: _602  and  _605
REMARK  234  A    between atoms: _605  and  _606
REMARK  235  A    between atoms: _611  and  _612
REMARK  236  A    between atoms: _614  and  _616
REMARK  237  A    between atoms: _616  and  _617
REMARK  238  A    between atoms: _616  and  _619
REMARK  239  A    between atoms: _619  and  _620
REMARK  240  A    between atoms: _625  and  _626
REMARK  241  A    between atoms: _628  and  _630
REMARK  242  A    between atoms: _630  and  _631
REMARK  243  A    between atoms: _630  and  _633
REMARK  244  A    between atoms: _636  and  _638
REMARK  245  A    between atoms: _638  and  _639
REMARK  246  A    between atoms: _638  and  _641
REMARK  247  A    between atoms: _641  and  _642
REMARK  248  A    between atoms: _647  and  _649
REMARK  249  A    between atoms: _649  and  _650
REMARK  250  A    between atoms: _653  and  _655
REMARK  251  A    between atoms: _655  and  _656
REMARK  252  A    between atoms: _655  and  _658
REMARK  253  A    between atoms: _658  and  _659
REMARK  254  A    between atoms: _659  and  _660
REMARK  255  A    between atoms: _660  and  _661
REMARK  256  A    between atoms: _670  and  _672
REMARK  257  A    between atoms: _672  and  _673
REMARK  258  A    between atoms: _672  and  _675
REMARK  259  A    between atoms: _675  and  _676
REMARK  260  A    between atoms: _679  and  _681
REMARK  261  A    between atoms: _681  and  _682
REMARK  262  A    between atoms: _681  and  _684
REMARK  263  A    between atoms: _684  and  _685
REMARK  264  A    between atoms: _688  and  _690
REMARK  265  A    between atoms: _690  and  _691
REMARK  266  A    between atoms: _690  and  _693
REMARK  267  A    between atoms: _693  and  _694
REMARK  268  A    between atoms: _724  and  _725
REMARK  269  A    between atoms: _725  and  _731
REMARK                            x       y       z     vdW  Elec       q    Type
REMARK                         _______ _______ _______ _____ _____    ______ ____
ROOT
ATOM      1  O   HOH     1       7.995  15.416   6.790  0.00  0.00    +0.000 OA
ENDROOT
TORSDOF 0
REMARK  Name = ../refined-set-2016/1b3h/1b3h_pocket.pdb
REMARK  269 active torsions:
REMARK  status: ('A' for Active; 'I' for Inactive)
REMARK    1  A    between atoms: _1  and  _3
REMARK    2  A    between atoms: _3  and  _4
REMARK    3  A    between atoms: _3  and  _6
REMARK    4  A    between atoms: _6  and  _7
REMARK    5  A    between atoms: _12  and  _14
REMARK    6  A    between atoms: _14  and  _15
REMARK    7  A    between atoms: _17  and  _19
REMARK    8  A    between atoms: _19  and  _20
REMARK    9  A    between atoms: _19  and  _22
REMARK   10  A    between atoms: _22  and  _23
REMARK   11  A    between atoms: _25  and  _27
REMARK   12  A    between atoms: _27  and  _28
REMARK   13  A    between atoms: _27  and  _30
REMARK   14  A    between atoms: _30  and  _31
REMARK   15  A    between atoms: _31  and  _32
REMARK   16  A    between atoms: _37  and  _39
REMARK   17  A    between atoms: _39  and  _40
REMARK   18  A    between atoms: _39  and  _42
REMARK   19  A    between atoms: _42  and  _43
REMARK   20  A    between atoms: _46  and  _48
REMARK   21  A    between atoms: _48  and  _49
REMARK   22  A    between atoms: _48  and  _51
REMARK   23  A    between atoms: _51  and  _52
REMARK   24  A    between atoms: _52  and  _53
REMARK   25  A    between atoms: _56  and  _58
REMARK   26  A    between atoms: _58  and  _59
REMARK   27  A    between atoms: _61  and  _63
REMARK   28  A    between atoms: _63  and  _64
REMARK   29  A    between atoms: _63  and  _66
REMARK   30  A    between atoms: _70  and  _71
REMARK   31  A    between atoms: _76  and  _78
REMARK   32  A    between atoms: _78  and  _79
REMARK   33  A    between atoms: _78  and  _81
REMARK   34  A    between atoms: _81  and  _82
REMARK   35  A    between atoms: _82  and  _83
REMARK   36  A    between atoms: _86  and  _88
REMARK   37  A    between atoms: _88  and  _89
REMARK   38  A    between atoms: _88  and  _91
REMARK   39  A    between atoms: _91  and  _92
REMARK   40  A    between atoms: _94  and  _96
REMARK   41  A    between atoms: _96  and  _97
REMARK   42  A    between atoms: _96  and  _99
REMARK   43  A    between atoms: _99  and  _100
REMARK   44  A    between atoms: _105  and  _107
REMARK   45  A    between atoms: _107  and  _108
REMARK   46  A    between atoms: _107  and  _110
REMARK   47  A    between atoms: _110  and  _111
REMARK   48  A    between atoms: _111  and  _112
REMARK   49  A    between atoms: _112  and  _113
REMARK   50  A    between atoms: _123  and  _124
REMARK   51  A    between atoms: _129  and  _131
REMARK   52  A    between atoms: _131  and  _132
REMARK   53  A    between atoms: _131  and  _134
REMARK   54  A    between atoms: _134  and  _135
REMARK   55  A    between atoms: _140  and  _141
REMARK   56  A    between atoms: _143  and  _145
REMARK   57  A    between atoms: _145  and  _146
REMARK   58  A    between atoms: _145  and  _148
REMARK   59  A    between atoms: _148  and  _149
REMARK   60  A    between atoms: _154  and  _155
REMARK   61  A    between atoms: _157  and  _159
REMARK   62  A    between atoms: _159  and  _160
REMARK   63  A    between atoms: _159  and  _162
REMARK   64  A    between atoms: _162  and  _163
REMARK   65  A    between atoms: _168  and  _169
REMARK   66  A    between atoms: _171  and  _173
REMARK   67  A    between atoms: _173  and  _174
REMARK   68  A    between atoms: _173  and  _176
REMARK   69  A    between atoms: _179  and  _181
REMARK   70  A    between atoms: _181  and  _182
REMARK   71  A    between atoms: _181  and  _184
REMARK   72  A    between atoms: _184  and  _185
REMARK   73  A    between atoms: _191  and  _192
REMARK   74  A    between atoms: _197  and  _199
REMARK   75  A    between atoms: _199  and  _200
REMARK   76  A    between atoms: _199  and  _202
REMARK   77  A    between atoms: _202  and  _203
REMARK   78  A    between atoms: _205  and  _207
REMARK   79  A    between atoms: _207  and  _208
REMARK   80  A    between atoms: _207  and  _210
REMARK   81  A    between atoms: _210  and  _211
REMARK   82  A    between atoms: _216  and  _217
REMARK   83  A    between atoms: _219  and  _221
REMARK   84  A    between atoms: _221  and  _222
REMARK   85  A    between atoms: _221  and  _224
REMARK   86  A    between atoms: _224  and  _225
REMARK   87  A    between atoms: _230  and  _232
REMARK   88  A    between atoms: _232  and  _233
REMARK   89  A    between atoms: _232  and  _235
REMARK   90  A    between atoms: _235  and  _236
REMARK   91  A    between atoms: _241  and  _243
REMARK   92  A    between atoms: _243  and  _244
REMARK   93  A    between atoms: _243  and  _246
REMARK   94  A    between atoms: _246  and  _247
REMARK   95  A    between atoms: _247  and  _248
REMARK   96  A    between atoms: _250  and  _252
REMARK   97  A    between atoms: _252  and  _253
REMARK   98  A    between atoms: _252  and  _255
REMARK   99  A    between atoms: _255  and  _256
REMARK  100  A    between atoms: _261  and  _262
REMARK  101  A    between atoms: _264  and  _266
REMARK  102  A    between atoms: _266  and  _267
REMARK  103  A    between atoms: _266  and  _269
REMARK  104  A    between atoms: _269  and  _270
REMARK  105  A    between atoms: _273  and  _275
REMARK  106  A    between atoms: _275  and  _276
REMARK  107  A    between atoms: _275  and  _278
REMARK  108  A    between atoms: _278  and  _279
REMARK  109  A    between atoms: _279  and  _496
REMARK  110  A    between atoms: _280  and  _282
REMARK  111  A    between atoms: _282  and  _283
REMARK  112  A    between atoms: _282  and  _285
REMARK  113  A    between atoms: _285  and  _286
REMARK  114  A    between atoms: _289  and  _291
REMARK  115  A    between atoms: _291  and  _292
REMARK  116  A    between atoms: _291  and  _294
REMARK  117  A    between atoms: _294  and  _295
REMARK  118  A    between atoms: _300  and  _301
REMARK  119  A    between atoms: _303  and  _305
REMARK  120  A    between atoms: _305  and  _306
REMARK  121  A    between atoms: _305  and  _308
REMARK  122  A    between atoms: _308  and  _309
REMARK  123  A    between atoms: _314  and  _315
REMARK  124  A    between atoms: _317  and  _319
REMARK  125  A    between atoms: _319  and  _320
REMARK  126  A    between atoms: _319  and  _322
REMARK  127  A    between atoms: _322  and  _323
REMARK  128  A    between atoms: _323  and  _324
REMARK  129  A    between atoms: _327  and  _329
REMARK  130  A    between atoms: _329  and  _330
REMARK  131  A    between atoms: _329  and  _332
REMARK  132  A    between atoms: _332  and  _333
REMARK  133  A    between atoms: _338  and  _339
REMARK  134  A    between atoms: _341  and  _343
REMARK  135  A    between atoms: _343  and  _344
REMARK  136  A    between atoms: _343  and  _346
REMARK  137  A    between atoms: _346  and  _347
REMARK  138  A    between atoms: _352  and  _354
REMARK  139  A    between atoms: _354  and  _355
REMARK  140  A    between atoms: _354  and  _357
REMARK  141  A    between atoms: _357  and  _358
REMARK  142  A    between atoms: _361  and  _363
REMARK  143  A    between atoms: _363  and  _364
REMARK  144  A    between atoms: _363  and  _366
REMARK  145  A    between atoms: _366  and  _367
REMARK  146  A    between atoms: _372  and  _374
REMARK  147  A    between atoms: _374  and  _375
REMARK  148  A    between atoms: _374  and  _377
REMARK  149  A    between atoms: _377  and  _378
REMARK  150  A    between atoms: _388  and  _390
REMARK  151  A    between atoms: _390  and  _391
REMARK  152  A    between atoms: _390  and  _393
REMARK  153  A    between atoms: _393  and  _394
REMARK  154  A    between atoms: _400  and  _402
REMARK  155  A    between atoms: _402  and  _403
REMARK  156  A    between atoms: _402  and  _405
REMARK  157  A    between atoms: _405  and  _406
REMARK  158  A    between atoms: _409  and  _411
REMARK  159  A    between atoms: _411  and  _412
REMARK  160  A    between atoms: _411  and  _414
REMARK  161  A    between atoms: _414  and  _415
REMARK  162  A    between atoms: _418  and  _420
REMARK  163  A    between atoms: _420  and  _421
REMARK  164  A    between atoms: _420  and  _423
REMARK  165  A    between atoms: _423  and  _424
REMARK  166  A    between atoms: _424  and  _425
REMARK  167  A    between atoms: _425  and  _426
REMARK  168  A    between atoms: _435  and  _437
REMARK  169  A    between atoms: _437  and  _438
REMARK  170  A    between atoms: _437  and  _440
REMARK  171  A    between atoms: _440  and  _441
REMARK  172  A    between atoms: _446  and  _448
REMARK  173  A    between atoms: _448  and  _449
REMARK  174  A    between atoms: _448  and  _451
REMARK  175  A    between atoms: _451  and  _452
REMARK  176  A    between atoms: _452  and  _453
REMARK  177  A    between atoms: _453  and  _454
REMARK  178  A    between atoms: _463  and  _465
REMARK  179  A    between atoms: _465  and  _466
REMARK  180  A    between atoms: _469  and  _471
REMARK  181  A    between atoms: _471  and  _472
REMARK  182  A    between atoms: _474  and  _476
REMARK  183  A    between atoms: _476  and  _477
REMARK  184  A    between atoms: _476  and  _479
REMARK  185  A    between atoms: _479  and  _480
REMARK  186  A    between atoms: _490  and  _492
REMARK  187  A    between atoms: _492  and  _493
REMARK  188  A    between atoms: _492  and  _495
REMARK  189  A    between atoms: _495  and  _496
REMARK  190  A    between atoms: _497  and  _499
REMARK  191  A    between atoms: _499  and  _500
REMARK  192  A    between atoms: _503  and  _505
REMARK  193  A    between atoms: _505  and  _506
REMARK  194  A    between atoms: _505  and  _508
REMARK  195  A    between atoms: _508  and  _509
REMARK  196  A    between atoms: _512  and  _514
REMARK  197  A    between atoms: _514  and  _515
REMARK  198  A    between atoms: _514  and  _517
REMARK  199  A    between atoms: _517  and  _518
REMARK  200  A    between atoms: _523  and  _524
REMARK  201  A    between atoms: _526  and  _528
REMARK  202  A    between atoms: _528  and  _529
REMARK  203  A    between atoms: _528  and  _531
REMARK  204  A    between atoms: _531  and  _532
REMARK  205  A    between atoms: _534  and  _536
REMARK  206  A    between atoms: _536  and  _537
REMARK  207  A    between atoms: _536  and  _539
REMARK  208  A    between atoms: _539  and  _540
REMARK  209  A    between atoms: _546  and  _548
REMARK  210  A    between atoms: _548  and  _549
REMARK  211  A    between atoms: _548  and  _551
REMARK  212  A    between atoms: _551  and  _552
REMARK  213  A    between atoms: _555  and  _557
REMARK  214  A    between atoms: _557  and  _558
REMARK  215  A    between atoms: _557  and  _560
REMARK  216  A    between atoms: _560  and  _561
REMARK  217  A    between atoms: _563  and  _565
REMARK  218  A    between atoms: _565  and  _566
REMARK  219  A    between atoms: _565  and  _568
REMARK  220  A    between atoms: _568  and  _569
REMARK  221  A    between atoms: _574  and  _576
REMARK  222  A    between atoms: _576  and  _577
REMARK  223  A    between atoms: _576  and  _579
REMARK  224  A    between atoms: _579  and  _580
REMARK  225  A    between atoms: _585  and  _587
REMARK  226  A    between atoms: _587  and  _588
REMARK  227  A    between atoms: _587  and  _590
REMARK  228  A    between atoms: _590  and  _591
REMARK  229  A    between atoms: _594  and  _596
REMARK  230  A    between atoms: _596  and  _597
REMARK  231  A    between atoms: _600  and  _602
REMARK  232  A    between atoms: _602  and  _603
REMARK  233  A    between atoms: _602  and  _605
REMARK  234  A    between atoms: _605  and  _606
REMARK  235  A    between atoms: _611  and  _612
REMARK  236  A    between atoms: _614  and  _616
REMARK  237  A    between atoms: _616  and  _617
REMARK  238  A    between atoms: _616  and  _619
REMARK  239  A    between atoms: _619  and  _620
REMARK  240  A    between atoms: _625  and  _626
REMARK  241  A    between atoms: _628  and  _630
REMARK  242  A    between atoms: _630  and  _631
REMARK  243  A    between atoms: _630  and  _633
REMARK  244  A    between atoms: _636  and  _638
REMARK  245  A    between atoms: _638  and  _639
REMARK  246  A    between atoms: _638  and  _641
REMARK  247  A    between atoms: _641  and  _642
REMARK  248  A    between atoms: _647  and  _649
REMARK  249  A    between atoms: _649  and  _650
REMARK  250  A    between atoms: _653  and  _655
REMARK  251  A    between atoms: _655  and  _656
REMARK  252  A    between atoms: _655  and  _658
REMARK  253  A    between atoms: _658  and  _659
REMARK  254  A    between atoms: _659  and  _660
REMARK  255  A    between atoms: _660  and  _661
REMARK  256  A    between atoms: _670  and  _672
REMARK  257  A    between atoms: _672  and  _673
REMARK  258  A    between atoms: _672  and  _675
REMARK  259  A    between atoms: _675  and  _676
REMARK  260  A    between atoms: _679  and  _681
REMARK  261  A    between atoms: _681  and  _682
REMARK  262  A    between atoms: _681  and  _684
REMARK  263  A    between atoms: _684  and  _685
REMARK  264  A    between atoms: _688  and  _690
REMARK  265  A    between atoms: _690  and  _691
REMARK  266  A    between atoms: _690  and  _693
REMARK  267  A    between atoms: _693  and  _694
REMARK  268  A    between atoms: _724  and  _725
REMARK  269  A    between atoms: _725  and  _731
REMARK                            x       y       z     vdW  Elec       q    Type
REMARK                         _______ _______ _______ _____ _____    ______ ____
ROOT
ATOM      1  O   HOH     1       1.620  21.819  19.129  0.00  0.00    +0.000 OA
ENDROOT
TORSDOF 0
REMARK  Name = ../refined-set-2016/1b3h/1b3h_pocket.pdb
REMARK  269 active torsions:
REMARK  status: ('A' for Active; 'I' for Inactive)
REMARK    1  A    between atoms: _1  and  _3
REMARK    2  A    between atoms: _3  and  _4
REMARK    3  A    between atoms: _3  and  _6
REMARK    4  A    between atoms: _6  and  _7
REMARK    5  A    between atoms: _12  and  _14
REMARK    6  A    between atoms: _14  and  _15
REMARK    7  A    between atoms: _17  and  _19
REMARK    8  A    between atoms: _19  and  _20
REMARK    9  A    between atoms: _19  and  _22
REMARK   10  A    between atoms: _22  and  _23
REMARK   11  A    between atoms: _25  and  _27
REMARK   12  A    between atoms: _27  and  _28
REMARK   13  A    between atoms: _27  and  _30
REMARK   14  A    between atoms: _30  and  _31
REMARK   15  A    between atoms: _31  and  _32
REMARK   16  A    between atoms: _37  and  _39
REMARK   17  A    between atoms: _39  and  _40
REMARK   18  A    between atoms: _39  and  _42
REMARK   19  A    between atoms: _42  and  _43
REMARK   20  A    between atoms: _46  and  _48
REMARK   21  A    between atoms: _48  and  _49
REMARK   22  A    between atoms: _48  and  _51
REMARK   23  A    between atoms: _51  and  _52
REMARK   24  A    between atoms: _52  and  _53
REMARK   25  A    between atoms: _56  and  _58
REMARK   26  A    between atoms: _58  and  _59
REMARK   27  A    between atoms: _61  and  _63
REMARK   28  A    between atoms: _63  and  _64
REMARK   29  A    between atoms: _63  and  _66
REMARK   30  A    between atoms: _70  and  _71
REMARK   31  A    between atoms: _76  and  _78
REMARK   32  A    between atoms: _78  and  _79
REMARK   33  A    between atoms: _78  and  _81
REMARK   34  A    between atoms: _81  and  _82
REMARK   35  A    between atoms: _82  and  _83
REMARK   36  A    between atoms: _86  and  _88
REMARK   37  A    between atoms: _88  and  _89
REMARK   38  A    between atoms: _88  and  _91
REMARK   39  A    between atoms: _91  and  _92
REMARK   40  A    between atoms: _94  and  _96
REMARK   41  A    between atoms: _96  and  _97
REMARK   42  A    between atoms: _96  and  _99
REMARK   43  A    between atoms: _99  and  _100
REMARK   44  A    between atoms: _105  and  _107
REMARK   45  A    between atoms: _107  and  _108
REMARK   46  A    between atoms: _107  and  _110
REMARK   47  A    between atoms: _110  and  _111
REMARK   48  A    between atoms: _111  and  _112
REMARK   49  A    between atoms: _112  and  _113
REMARK   50  A    between atoms: _123  and  _124
REMARK   51  A    between atoms: _129  and  _131
REMARK   52  A    between atoms: _131  and  _132
REMARK   53  A    between atoms: _131  and  _134
REMARK   54  A    between atoms: _134  and  _135
REMARK   55  A    between atoms: _140  and  _141
REMARK   56  A    between atoms: _143  and  _145
REMARK   57  A    between atoms: _145  and  _146
REMARK   58  A    between atoms: _145  and  _148
REMARK   59  A    between atoms: _148  and  _149
REMARK   60  A    between atoms: _154  and  _155
REMARK   61  A    between atoms: _157  and  _159
REMARK   62  A    between atoms: _159  and  _160
REMARK   63  A    between atoms: _159  and  _162
REMARK   64  A    between atoms: _162  and  _163
REMARK   65  A    between atoms: _168  and  _169
REMARK   66  A    between atoms: _171  and  _173
REMARK   67  A    between atoms: _173  and  _174
REMARK   68  A    between atoms: _173  and  _176
REMARK   69  A    between atoms: _179  and  _181
REMARK   70  A    between atoms: _181  and  _182
REMARK   71  A    between atoms: _181  and  _184
REMARK   72  A    between atoms: _184  and  _185
REMARK   73  A    between atoms: _191  and  _192
REMARK   74  A    between atoms: _197  and  _199
REMARK   75  A    between atoms: _199  and  _200
REMARK   76  A    between atoms: _199  and  _202
REMARK   77  A    between atoms: _202  and  _203
REMARK   78  A    between atoms: _205  and  _207
REMARK   79  A    between atoms: _207  and  _208
REMARK   80  A    between atoms: _207  and  _210
REMARK   81  A    between atoms: _210  and  _211
REMARK   82  A    between atoms: _216  and  _217
REMARK   83  A    between atoms: _219  and  _221
REMARK   84  A    between atoms: _221  and  _222
REMARK   85  A    between atoms: _221  and  _224
REMARK   86  A    between atoms: _224  and  _225
REMARK   87  A    between atoms: _230  and  _232
REMARK   88  A    between atoms: _232  and  _233
REMARK   89  A    between atoms: _232  and  _235
REMARK   90  A    between atoms: _235  and  _236
REMARK   91  A    between atoms: _241  and  _243
REMARK   92  A    between atoms: _243  and  _244
REMARK   93  A    between atoms: _243  and  _246
REMARK   94  A    between atoms: _246  and  _247
REMARK   95  A    between atoms: _247  and  _248
REMARK   96  A    between atoms: _250  and  _252
REMARK   97  A    between atoms: _252  and  _253
REMARK   98  A    between atoms: _252  and  _255
REMARK   99  A    between atoms: _255  and  _256
REMARK  100  A    between atoms: _261  and  _262
REMARK  101  A    between atoms: _264  and  _266
REMARK  102  A    between atoms: _266  and  _267
REMARK  103  A    between atoms: _266  and  _269
REMARK  104  A    between atoms: _269  and  _270
REMARK  105  A    between atoms: _273  and  _275
REMARK  106  A    between atoms: _275  and  _276
REMARK  107  A    between atoms: _275  and  _278
REMARK  108  A    between atoms: _278  and  _279
REMARK  109  A    between atoms: _279  and  _496
REMARK  110  A    between atoms: _280  and  _282
REMARK  111  A    between atoms: _282  and  _283
REMARK  112  A    between atoms: _282  and  _285
REMARK  113  A    between atoms: _285  and  _286
REMARK  114  A    between atoms: _289  and  _291
REMARK  115  A    between atoms: _291  and  _292
REMARK  116  A    between atoms: _291  and  _294
REMARK  117  A    between atoms: _294  and  _295
REMARK  118  A    between atoms: _300  and  _301
REMARK  119  A    between atoms: _303  and  _305
REMARK  120  A    between atoms: _305  and  _306
REMARK  121  A    between atoms: _305  and  _308
REMARK  122  A    between atoms: _308  and  _309
REMARK  123  A    between atoms: _314  and  _315
REMARK  124  A    between atoms: _317  and  _319
REMARK  125  A    between atoms: _319  and  _320
REMARK  126  A    between atoms: _319  and  _322
REMARK  127  A    between atoms: _322  and  _323
REMARK  128  A    between atoms: _323  and  _324
REMARK  129  A    between atoms: _327  and  _329
REMARK  130  A    between atoms: _329  and  _330
REMARK  131  A    between atoms: _329  and  _332
REMARK  132  A    between atoms: _332  and  _333
REMARK  133  A    between atoms: _338  and  _339
REMARK  134  A    between atoms: _341  and  _343
REMARK  135  A    between atoms: _343  and  _344
REMARK  136  A    between atoms: _343  and  _346
REMARK  137  A    between atoms: _346  and  _347
REMARK  138  A    between atoms: _352  and  _354
REMARK  139  A    between atoms: _354  and  _355
REMARK  140  A    between atoms: _354  and  _357
REMARK  141  A    between atoms: _357  and  _358
REMARK  142  A    between atoms: _361  and  _363
REMARK  143  A    between atoms: _363  and  _364
REMARK  144  A    between atoms: _363  and  _366
REMARK  145  A    between atoms: _366  and  _367
REMARK  146  A    between atoms: _372  and  _374
REMARK  147  A    between atoms: _374  and  _375
REMARK  148  A    between atoms: _374  and  _377
REMARK  149  A    between atoms: _377  and  _378
REMARK  150  A    between atoms: _388  and  _390
REMARK  151  A    between atoms: _390  and  _391
REMARK  152  A    between atoms: _390  and  _393
REMARK  153  A    between atoms: _393  and  _394
REMARK  154  A    between atoms: _400  and  _402
REMARK  155  A    between atoms: _402  and  _403
REMARK  156  A    between atoms: _402  and  _405
REMARK  157  A    between atoms: _405  and  _406
REMARK  158  A    between atoms: _409  and  _411
REMARK  159  A    between atoms: _411  and  _412
REMARK  160  A    between atoms: _411  and  _414
REMARK  161  A    between atoms: _414  and  _415
REMARK  162  A    between atoms: _418  and  _420
REMARK  163  A    between atoms: _420  and  _421
REMARK  164  A    between atoms: _420  and  _423
REMARK  165  A    between atoms: _423  and  _424
REMARK  166  A    between atoms: _424  and  _425
REMARK  167  A    between atoms: _425  and  _426
REMARK  168  A    between atoms: _435  and  _437
REMARK  169  A    between atoms: _437  and  _438
REMARK  170  A    between atoms: _437  and  _440
REMARK  171  A    between atoms: _440  and  _441
REMARK  172  A    between atoms: _446  and  _448
REMARK  173  A    between atoms: _448  and  _449
REMARK  174  A    between atoms: _448  and  _451
REMARK  175  A    between atoms: _451  and  _452
REMARK  176  A    between atoms: _452  and  _453
REMARK  177  A    between atoms: _453  and  _454
REMARK  178  A    between atoms: _463  and  _465
REMARK  179  A    between atoms: _465  and  _466
REMARK  180  A    between atoms: _469  and  _471
REMARK  181  A    between atoms: _471  and  _472
REMARK  182  A    between atoms: _474  and  _476
REMARK  183  A    between atoms: _476  and  _477
REMARK  184  A    between atoms: _476  and  _479
REMARK  185  A    between atoms: _479  and  _480
REMARK  186  A    between atoms: _490  and  _492
REMARK  187  A    between atoms: _492  and  _493
REMARK  188  A    between atoms: _492  and  _495
REMARK  189  A    between atoms: _495  and  _496
REMARK  190  A    between atoms: _497  and  _499
REMARK  191  A    between atoms: _499  and  _500
REMARK  192  A    between atoms: _503  and  _505
REMARK  193  A    between atoms: _505  and  _506
REMARK  194  A    between atoms: _505  and  _508
REMARK  195  A    between atoms: _508  and  _509
REMARK  196  A    between atoms: _512  and  _514
REMARK  197  A    between atoms: _514  and  _515
REMARK  198  A    between atoms: _514  and  _517
REMARK  199  A    between atoms: _517  and  _518
REMARK  200  A    between atoms: _523  and  _524
REMARK  201  A    between atoms: _526  and  _528
REMARK  202  A    between atoms: _528  and  _529
REMARK  203  A    between atoms: _528  and  _531
REMARK  204  A    between atoms: _531  and  _532
REMARK  205  A    between atoms: _534  and  _536
REMARK  206  A    between atoms: _536  and  _537
REMARK  207  A    between atoms: _536  and  _539
REMARK  208  A    between atoms: _539  and  _540
REMARK  209  A    between atoms: _546  and  _548
REMARK  210  A    between atoms: _548  and  _549
REMARK  211  A    between atoms: _548  and  _551
REMARK  212  A    between atoms: _551  and  _552
REMARK  213  A    between atoms: _555  and  _557
REMARK  214  A    between atoms: _557  and  _558
REMARK  215  A    between atoms: _557  and  _560
REMARK  216  A    between atoms: _560  and  _561
REMARK  217  A    between atoms: _563  and  _565
REMARK  218  A    between atoms: _565  and  _566
REMARK  219  A    between atoms: _565  and  _568
REMARK  220  A    between atoms: _568  and  _569
REMARK  221  A    between atoms: _574  and  _576
REMARK  222  A    between atoms: _576  and  _577
REMARK  223  A    between atoms: _576  and  _579
REMARK  224  A    between atoms: _579  and  _580
REMARK  225  A    between atoms: _585  and  _587
REMARK  226  A    between atoms: _587  and  _588
REMARK  227  A    between atoms: _587  and  _590
REMARK  228  A    between atoms: _590  and  _591
REMARK  229  A    between atoms: _594  and  _596
REMARK  230  A    between atoms: _596  and  _597
REMARK  231  A    between atoms: _600  and  _602
REMARK  232  A    between atoms: _602  and  _603
REMARK  233  A    between atoms: _602  and  _605
REMARK  234  A    between atoms: _605  and  _606
REMARK  235  A    between atoms: _611  and  _612
REMARK  236  A    between atoms: _614  and  _616
REMARK  237  A    between atoms: _616  and  _617
REMARK  238  A    between atoms: _616  and  _619
REMARK  239  A    between atoms: _619  and  _620
REMARK  240  A    between atoms: _625  and  _626
REMARK  241  A    between atoms: _628  and  _630
REMARK  242  A    between atoms: _630  and  _631
REMARK  243  A    between atoms: _630  and  _633
REMARK  244  A    between atoms: _636  and  _638
REMARK  245  A    between atoms: _638  and  _639
REMARK  246  A    between atoms: _638  and  _641
REMARK  247  A    between atoms: _641  and  _642
REMARK  248  A    between atoms: _647  and  _649
REMARK  249  A    between atoms: _649  and  _650
REMARK  250  A    between atoms: _653  and  _655
REMARK  251  A    between atoms: _655  and  _656
REMARK  252  A    between atoms: _655  and  _658
REMARK  253  A    between atoms: _658  and  _659
REMARK  254  A    between atoms: _659  and  _660
REMARK  255  A    between atoms: _660  and  _661
REMARK  256  A    between atoms: _670  and  _672
REMARK  257  A    between atoms: _672  and  _673
REMARK  258  A    between atoms: _672  and  _675
REMARK  259  A    between atoms: _675  and  _676
REMARK  260  A    between atoms: _679  and  _681
REMARK  261  A    between atoms: _681  and  _682
REMARK  262  A    between atoms: _681  and  _684
REMARK  263  A    between atoms: _684  and  _685
REMARK  264  A    between atoms: _688  and  _690
REMARK  265  A    between atoms: _690  and  _691
REMARK  266  A    between atoms: _690  and  _693
REMARK  267  A    between atoms: _693  and  _694
REMARK  268  A    between atoms: _724  and  _725
REMARK  269  A    between atoms: _725  and  _731
REMARK                            x       y       z     vdW  Elec       q    Type
REMARK                         _______ _______ _______ _____ _____    ______ ____
ROOT
ATOM      1  O   HOH     1       8.761  13.139   9.653  0.00  0.00    +0.000 OA
ENDROOT
TORSDOF 0
REMARK  Name = ../refined-set-2016/1b3h/1b3h_pocket.pdb
REMARK  269 active torsions:
REMARK  status: ('A' for Active; 'I' for Inactive)
REMARK    1  A    between atoms: _1  and  _3
REMARK    2  A    between atoms: _3  and  _4
REMARK    3  A    between atoms: _3  and  _6
REMARK    4  A    between atoms: _6  and  _7
REMARK    5  A    between atoms: _12  and  _14
REMARK    6  A    between atoms: _14  and  _15
REMARK    7  A    between atoms: _17  and  _19
REMARK    8  A    between atoms: _19  and  _20
REMARK    9  A    between atoms: _19  and  _22
REMARK   10  A    between atoms: _22  and  _23
REMARK   11  A    between atoms: _25  and  _27
REMARK   12  A    between atoms: _27  and  _28
REMARK   13  A    between atoms: _27  and  _30
REMARK   14  A    between atoms: _30  and  _31
REMARK   15  A    between atoms: _31  and  _32
REMARK   16  A    between atoms: _37  and  _39
REMARK   17  A    between atoms: _39  and  _40
REMARK   18  A    between atoms: _39  and  _42
REMARK   19  A    between atoms: _42  and  _43
REMARK   20  A    between atoms: _46  and  _48
REMARK   21  A    between atoms: _48  and  _49
REMARK   22  A    between atoms: _48  and  _51
REMARK   23  A    between atoms: _51  and  _52
REMARK   24  A    between atoms: _52  and  _53
REMARK   25  A    between atoms: _56  and  _58
REMARK   26  A    between atoms: _58  and  _59
REMARK   27  A    between atoms: _61  and  _63
REMARK   28  A    between atoms: _63  and  _64
REMARK   29  A    between atoms: _63  and  _66
REMARK   30  A    between atoms: _70  and  _71
REMARK   31  A    between atoms: _76  and  _78
REMARK   32  A    between atoms: _78  and  _79
REMARK   33  A    between atoms: _78  and  _81
REMARK   34  A    between atoms: _81  and  _82
REMARK   35  A    between atoms: _82  and  _83
REMARK   36  A    between atoms: _86  and  _88
REMARK   37  A    between atoms: _88  and  _89
REMARK   38  A    between atoms: _88  and  _91
REMARK   39  A    between atoms: _91  and  _92
REMARK   40  A    between atoms: _94  and  _96
REMARK   41  A    between atoms: _96  and  _97
REMARK   42  A    between atoms: _96  and  _99
REMARK   43  A    between atoms: _99  and  _100
REMARK   44  A    between atoms: _105  and  _107
REMARK   45  A    between atoms: _107  and  _108
REMARK   46  A    between atoms: _107  and  _110
REMARK   47  A    between atoms: _110  and  _111
REMARK   48  A    between atoms: _111  and  _112
REMARK   49  A    between atoms: _112  and  _113
REMARK   50  A    between atoms: _123  and  _124
REMARK   51  A    between atoms: _129  and  _131
REMARK   52  A    between atoms: _131  and  _132
REMARK   53  A    between atoms: _131  and  _134
REMARK   54  A    between atoms: _134  and  _135
REMARK   55  A    between atoms: _140  and  _141
REMARK   56  A    between atoms: _143  and  _145
REMARK   57  A    between atoms: _145  and  _146
REMARK   58  A    between atoms: _145  and  _148
REMARK   59  A    between atoms: _148  and  _149
REMARK   60  A    between atoms: _154  and  _155
REMARK   61  A    between atoms: _157  and  _159
REMARK   62  A    between atoms: _159  and  _160
REMARK   63  A    between atoms: _159  and  _162
REMARK   64  A    between atoms: _162  and  _163
REMARK   65  A    between atoms: _168  and  _169
REMARK   66  A    between atoms: _171  and  _173
REMARK   67  A    between atoms: _173  and  _174
REMARK   68  A    between atoms: _173  and  _176
REMARK   69  A    between atoms: _179  and  _181
REMARK   70  A    between atoms: _181  and  _182
REMARK   71  A    between atoms: _181  and  _184
REMARK   72  A    between atoms: _184  and  _185
REMARK   73  A    between atoms: _191  and  _192
REMARK   74  A    between atoms: _197  and  _199
REMARK   75  A    between atoms: _199  and  _200
REMARK   76  A    between atoms: _199  and  _202
REMARK   77  A    between atoms: _202  and  _203
REMARK   78  A    between atoms: _205  and  _207
REMARK   79  A    between atoms: _207  and  _208
REMARK   80  A    between atoms: _207  and  _210
REMARK   81  A    between atoms: _210  and  _211
REMARK   82  A    between atoms: _216  and  _217
REMARK   83  A    between atoms: _219  and  _221
REMARK   84  A    between atoms: _221  and  _222
REMARK   85  A    between atoms: _221  and  _224
REMARK   86  A    between atoms: _224  and  _225
REMARK   87  A    between atoms: _230  and  _232
REMARK   88  A    between atoms: _232  and  _233
REMARK   89  A    between atoms: _232  and  _235
REMARK   90  A    between atoms: _235  and  _236
REMARK   91  A    between atoms: _241  and  _243
REMARK   92  A    between atoms: _243  and  _244
REMARK   93  A    between atoms: _243  and  _246
REMARK   94  A    between atoms: _246  and  _247
REMARK   95  A    between atoms: _247  and  _248
REMARK   96  A    between atoms: _250  and  _252
REMARK   97  A    between atoms: _252  and  _253
REMARK   98  A    between atoms: _252  and  _255
REMARK   99  A    between atoms: _255  and  _256
REMARK  100  A    between atoms: _261  and  _262
REMARK  101  A    between atoms: _264  and  _266
REMARK  102  A    between atoms: _266  and  _267
REMARK  103  A    between atoms: _266  and  _269
REMARK  104  A    between atoms: _269  and  _270
REMARK  105  A    between atoms: _273  and  _275
REMARK  106  A    between atoms: _275  and  _276
REMARK  107  A    between atoms: _275  and  _278
REMARK  108  A    between atoms: _278  and  _279
REMARK  109  A    between atoms: _279  and  _496
REMARK  110  A    between atoms: _280  and  _282
REMARK  111  A    between atoms: _282  and  _283
REMARK  112  A    between atoms: _282  and  _285
REMARK  113  A    between atoms: _285  and  _286
REMARK  114  A    between atoms: _289  and  _291
REMARK  115  A    between atoms: _291  and  _292
REMARK  116  A    between atoms: _291  and  _294
REMARK  117  A    between atoms: _294  and  _295
REMARK  118  A    between atoms: _300  and  _301
REMARK  119  A    between atoms: _303  and  _305
REMARK  120  A    between atoms: _305  and  _306
REMARK  121  A    between atoms: _305  and  _308
REMARK  122  A    between atoms: _308  and  _309
REMARK  123  A    between atoms: _314  and  _315
REMARK  124  A    between atoms: _317  and  _319
REMARK  125  A    between atoms: _319  and  _320
REMARK  126  A    between atoms: _319  and  _322
REMARK  127  A    between atoms: _322  and  _323
REMARK  128  A    between atoms: _323  and  _324
REMARK  129  A    between atoms: _327  and  _329
REMARK  130  A    between atoms: _329  and  _330
REMARK  131  A    between atoms: _329  and  _332
REMARK  132  A    between atoms: _332  and  _333
REMARK  133  A    between atoms: _338  and  _339
REMARK  134  A    between atoms: _341  and  _343
REMARK  135  A    between atoms: _343  and  _344
REMARK  136  A    between atoms: _343  and  _346
REMARK  137  A    between atoms: _346  and  _347
REMARK  138  A    between atoms: _352  and  _354
REMARK  139  A    between atoms: _354  and  _355
REMARK  140  A    between atoms: _354  and  _357
REMARK  141  A    between atoms: _357  and  _358
REMARK  142  A    between atoms: _361  and  _363
REMARK  143  A    between atoms: _363  and  _364
REMARK  144  A    between atoms: _363  and  _366
REMARK  145  A    between atoms: _366  and  _367
REMARK  146  A    between atoms: _372  and  _374
REMARK  147  A    between atoms: _374  and  _375
REMARK  148  A    between atoms: _374  and  _377
REMARK  149  A    between atoms: _377  and  _378
REMARK  150  A    between atoms: _388  and  _390
REMARK  151  A    between atoms: _390  and  _391
REMARK  152  A    between atoms: _390  and  _393
REMARK  153  A    between atoms: _393  and  _394
REMARK  154  A    between atoms: _400  and  _402
REMARK  155  A    between atoms: _402  and  _403
REMARK  156  A    between atoms: _402  and  _405
REMARK  157  A    between atoms: _405  and  _406
REMARK  158  A    between atoms: _409  and  _411
REMARK  159  A    between atoms: _411  and  _412
REMARK  160  A    between atoms: _411  and  _414
REMARK  161  A    between atoms: _414  and  _415
REMARK  162  A    between atoms: _418  and  _420
REMARK  163  A    between atoms: _420  and  _421
REMARK  164  A    between atoms: _420  and  _423
REMARK  165  A    between atoms: _423  and  _424
REMARK  166  A    between atoms: _424  and  _425
REMARK  167  A    between atoms: _425  and  _426
REMARK  168  A    between atoms: _435  and  _437
REMARK  169  A    between atoms: _437  and  _438
REMARK  170  A    between atoms: _437  and  _440
REMARK  171  A    between atoms: _440  and  _441
REMARK  172  A    between atoms: _446  and  _448
REMARK  173  A    between atoms: _448  and  _449
REMARK  174  A    between atoms: _448  and  _451
REMARK  175  A    between atoms: _451  and  _452
REMARK  176  A    between atoms: _452  and  _453
REMARK  177  A    between atoms: _453  and  _454
REMARK  178  A    between atoms: _463  and  _465
REMARK  179  A    between atoms: _465  and  _466
REMARK  180  A    between atoms: _469  and  _471
REMARK  181  A    between atoms: _471  and  _472
REMARK  182  A    between atoms: _474  and  _476
REMARK  183  A    between atoms: _476  and  _477
REMARK  184  A    between atoms: _476  and  _479
REMARK  185  A    between atoms: _479  and  _480
REMARK  186  A    between atoms: _490  and  _492
REMARK  187  A    between atoms: _492  and  _493
REMARK  188  A    between atoms: _492  and  _495
REMARK  189  A    between atoms: _495  and  _496
REMARK  190  A    between atoms: _497  and  _499
REMARK  191  A    between atoms: _499  and  _500
REMARK  192  A    between atoms: _503  and  _505
REMARK  193  A    between atoms: _505  and  _506
REMARK  194  A    between atoms: _505  and  _508
REMARK  195  A    between atoms: _508  and  _509
REMARK  196  A    between atoms: _512  and  _514
REMARK  197  A    between atoms: _514  and  _515
REMARK  198  A    between atoms: _514  and  _517
REMARK  199  A    between atoms: _517  and  _518
REMARK  200  A    between atoms: _523  and  _524
REMARK  201  A    between atoms: _526  and  _528
REMARK  202  A    between atoms: _528  and  _529
REMARK  203  A    between atoms: _528  and  _531
REMARK  204  A    between atoms: _531  and  _532
REMARK  205  A    between atoms: _534  and  _536
REMARK  206  A    between atoms: _536  and  _537
REMARK  207  A    between atoms: _536  and  _539
REMARK  208  A    between atoms: _539  and  _540
REMARK  209  A    between atoms: _546  and  _548
REMARK  210  A    between atoms: _548  and  _549
REMARK  211  A    between atoms: _548  and  _551
REMARK  212  A    between atoms: _551  and  _552
REMARK  213  A    between atoms: _555  and  _557
REMARK  214  A    between atoms: _557  and  _558
REMARK  215  A    between atoms: _557  and  _560
REMARK  216  A    between atoms: _560  and  _561
REMARK  217  A    between atoms: _563  and  _565
REMARK  218  A    between atoms: _565  and  _566
REMARK  219  A    between atoms: _565  and  _568
REMARK  220  A    between atoms: _568  and  _569
REMARK  221  A    between atoms: _574  and  _576
REMARK  222  A    between atoms: _576  and  _577
REMARK  223  A    between atoms: _576  and  _579
REMARK  224  A    between atoms: _579  and  _580
REMARK  225  A    between atoms: _585  and  _587
REMARK  226  A    between atoms: _587  and  _588
REMARK  227  A    between atoms: _587  and  _590
REMARK  228  A    between atoms: _590  and  _591
REMARK  229  A    between atoms: _594  and  _596
REMARK  230  A    between atoms: _596  and  _597
REMARK  231  A    between atoms: _600  and  _602
REMARK  232  A    between atoms: _602  and  _603
REMARK  233  A    between atoms: _602  and  _605
REMARK  234  A    between atoms: _605  and  _606
REMARK  235  A    between atoms: _611  and  _612
REMARK  236  A    between atoms: _614  and  _616
REMARK  237  A    between atoms: _616  and  _617
REMARK  238  A    between atoms: _616  and  _619
REMARK  239  A    between atoms: _619  and  _620
REMARK  240  A    between atoms: _625  and  _626
REMARK  241  A    between atoms: _628  and  _630
REMARK  242  A    between atoms: _630  and  _631
REMARK  243  A    between atoms: _630  and  _633
REMARK  244  A    between atoms: _636  and  _638
REMARK  245  A    between atoms: _638  and  _639
REMARK  246  A    between atoms: _638  and  _641
REMARK  247  A    between atoms: _641  and  _642
REMARK  248  A    between atoms: _647  and  _649
REMARK  249  A    between atoms: _649  and  _650
REMARK  250  A    between atoms: _653  and  _655
REMARK  251  A    between atoms: _655  and  _656
REMARK  252  A    between atoms: _655  and  _658
REMARK  253  A    between atoms: _658  and  _659
REMARK  254  A    between atoms: _659  and  _660
REMARK  255  A    between atoms: _660  and  _661
REMARK  256  A    between atoms: _670  and  _672
REMARK  257  A    between atoms: _672  and  _673
REMARK  258  A    between atoms: _672  and  _675
REMARK  259  A    between atoms: _675  and  _676
REMARK  260  A    between atoms: _679  and  _681
REMARK  261  A    between atoms: _681  and  _682
REMARK  262  A    between atoms: _681  and  _684
REMARK  263  A    between atoms: _684  and  _685
REMARK  264  A    between atoms: _688  and  _690
REMARK  265  A    between atoms: _690  and  _691
REMARK  266  A    between atoms: _690  and  _693
REMARK  267  A    between atoms: _693  and  _694
REMARK  268  A    between atoms: _724  and  _725
REMARK  269  A    between atoms: _725  and  _731
REMARK                            x       y       z     vdW  Elec       q    Type
REMARK                         _______ _______ _______ _____ _____    ______ ____
ROOT
ATOM      1  O   HOH     1      -4.121  19.949  16.113  0.00  0.00    +0.000 OA
ENDROOT
TORSDOF 0
