REMARK  Name = ../refined-set-2016/4pge/4pge_pocket.pdb
REMARK  355 active torsions:
REMARK  status: ('A' for Active; 'I' for Inactive)
REMARK    1  A    between atoms: _1  and  _3
REMARK    2  A    between atoms: _3  and  _4
REMARK    3  A    between atoms: _3  and  _6
REMARK    4  A    between atoms: _6  and  _7
REMARK    5  A    between atoms: _10  and  _12
REMARK    6  A    between atoms: _12  and  _13
REMARK    7  A    between atoms: _12  and  _15
REMARK    8  A    between atoms: _15  and  _16
REMARK    9  A    between atoms: _16  and  _17
REMARK   10  A    between atoms: _17  and  _18
REMARK   11  A    between atoms: _27  and  _29
REMARK   12  A    between atoms: _29  and  _30
REMARK   13  A    between atoms: _29  and  _32
REMARK   14  A    between atoms: _32  and  _33
REMARK   15  A    between atoms: _38  and  _39
REMARK   16  A    between atoms: _41  and  _43
REMARK   17  A    between atoms: _43  and  _44
REMARK   18  A    between atoms: _43  and  _46
REMARK   19  A    between atoms: _46  and  _47
REMARK   20  A    between atoms: _53  and  _55
REMARK   21  A    between atoms: _55  and  _56
REMARK   22  A    between atoms: _55  and  _58
REMARK   23  A    between atoms: _61  and  _63
REMARK   24  A    between atoms: _63  and  _64
REMARK   25  A    between atoms: _63  and  _66
REMARK   26  A    between atoms: _66  and  _67
REMARK   27  A    between atoms: _70  and  _72
REMARK   28  A    between atoms: _72  and  _73
REMARK   29  A    between atoms: _76  and  _78
REMARK   30  A    between atoms: _78  and  _79
REMARK   31  A    between atoms: _78  and  _81
REMARK   32  A    between atoms: _81  and  _82
REMARK   33  A    between atoms: _87  and  _88
REMARK   34  A    between atoms: _90  and  _92
REMARK   35  A    between atoms: _92  and  _93
REMARK   36  A    between atoms: _92  and  _95
REMARK   37  A    between atoms: _95  and  _96
REMARK   38  A    between atoms: _96  and  _97
REMARK   39  A    between atoms: _99  and  _101
REMARK   40  A    between atoms: _101  and  _102
REMARK   41  A    between atoms: _101  and  _104
REMARK   42  A    between atoms: _104  and  _105
REMARK   43  A    between atoms: _105  and  _106
REMARK   44  A    between atoms: _109  and  _111
REMARK   45  A    between atoms: _111  and  _112
REMARK   46  A    between atoms: _111  and  _114
REMARK   47  A    between atoms: _117  and  _119
REMARK   48  A    between atoms: _119  and  _120
REMARK   49  A    between atoms: _122  and  _124
REMARK   50  A    between atoms: _124  and  _125
REMARK   51  A    between atoms: _124  and  _127
REMARK   52  A    between atoms: _130  and  _132
REMARK   53  A    between atoms: _132  and  _133
REMARK   54  A    between atoms: _132  and  _135
REMARK   55  A    between atoms: _135  and  _136
REMARK   56  A    between atoms: _142  and  _144
REMARK   57  A    between atoms: _144  and  _145
REMARK   58  A    between atoms: _144  and  _147
REMARK   59  A    between atoms: _150  and  _152
REMARK   60  A    between atoms: _152  and  _153
REMARK   61  A    between atoms: _152  and  _155
REMARK   62  A    between atoms: _155  and  _156
REMARK   63  A    between atoms: _161  and  _162
REMARK   64  A    between atoms: _164  and  _166
REMARK   65  A    between atoms: _166  and  _167
REMARK   66  A    between atoms: _166  and  _169
REMARK   67  A    between atoms: _169  and  _170
REMARK   68  A    between atoms: _170  and  _171
REMARK   69  A    between atoms: _173  and  _175
REMARK   70  A    between atoms: _175  and  _176
REMARK   71  A    between atoms: _175  and  _178
REMARK   72  A    between atoms: _178  and  _179
REMARK   73  A    between atoms: _179  and  _180
REMARK   74  A    between atoms: _183  and  _185
REMARK   75  A    between atoms: _185  and  _186
REMARK   76  A    between atoms: _185  and  _188
REMARK   77  A    between atoms: _188  and  _189
REMARK   78  A    between atoms: _189  and  _190
REMARK   79  A    between atoms: _193  and  _195
REMARK   80  A    between atoms: _195  and  _196
REMARK   81  A    between atoms: _195  and  _198
REMARK   82  A    between atoms: _198  and  _199
REMARK   83  A    between atoms: _204  and  _205
REMARK   84  A    between atoms: _207  and  _209
REMARK   85  A    between atoms: _209  and  _210
REMARK   86  A    between atoms: _209  and  _212
REMARK   87  A    between atoms: _212  and  _213
REMARK   88  A    between atoms: _213  and  _214
REMARK   89  A    between atoms: _214  and  _215
REMARK   90  A    between atoms: _224  and  _226
REMARK   91  A    between atoms: _226  and  _227
REMARK   92  A    between atoms: _226  and  _229
REMARK   93  A    between atoms: _229  and  _230
REMARK   94  A    between atoms: _230  and  _231
REMARK   95  A    between atoms: _234  and  _236
REMARK   96  A    between atoms: _236  and  _237
REMARK   97  A    between atoms: _236  and  _239
REMARK   98  A    between atoms: _239  and  _240
REMARK   99  A    between atoms: _243  and  _245
REMARK  100  A    between atoms: _245  and  _246
REMARK  101  A    between atoms: _245  and  _248
REMARK  102  A    between atoms: _248  and  _249
REMARK  103  A    between atoms: _249  and  _250
REMARK  104  A    between atoms: _255  and  _257
REMARK  105  A    between atoms: _257  and  _258
REMARK  106  A    between atoms: _257  and  _260
REMARK  107  A    between atoms: _260  and  _261
REMARK  108  A    between atoms: _261  and  _262
REMARK  109  A    between atoms: _262  and  _263
REMARK  110  A    between atoms: _263  and  _264
REMARK  111  A    between atoms: _268  and  _270
REMARK  112  A    between atoms: _270  and  _271
REMARK  113  A    between atoms: _274  and  _276
REMARK  114  A    between atoms: _276  and  _277
REMARK  115  A    between atoms: _279  and  _281
REMARK  116  A    between atoms: _281  and  _282
REMARK  117  A    between atoms: _281  and  _284
REMARK  118  A    between atoms: _284  and  _285
REMARK  119  A    between atoms: _290  and  _292
REMARK  120  A    between atoms: _292  and  _293
REMARK  121  A    between atoms: _292  and  _295
REMARK  122  A    between atoms: _295  and  _296
REMARK  123  A    between atoms: _296  and  _297
REMARK  124  A    between atoms: _300  and  _302
REMARK  125  A    between atoms: _302  and  _303
REMARK  126  A    between atoms: _302  and  _305
REMARK  127  A    between atoms: _305  and  _306
REMARK  128  A    between atoms: _306  and  _307
REMARK  129  A    between atoms: _312  and  _314
REMARK  130  A    between atoms: _314  and  _315
REMARK  131  A    between atoms: _314  and  _317
REMARK  132  A    between atoms: _317  and  _318
REMARK  133  A    between atoms: _320  and  _322
REMARK  134  A    between atoms: _322  and  _323
REMARK  135  A    between atoms: _322  and  _325
REMARK  136  A    between atoms: _325  and  _326
REMARK  137  A    between atoms: _332  and  _334
REMARK  138  A    between atoms: _334  and  _335
REMARK  139  A    between atoms: _334  and  _337
REMARK  140  A    between atoms: _340  and  _342
REMARK  141  A    between atoms: _342  and  _343
REMARK  142  A    between atoms: _342  and  _345
REMARK  143  A    between atoms: _345  and  _346
REMARK  144  A    between atoms: _349  and  _351
REMARK  145  A    between atoms: _351  and  _352
REMARK  146  A    between atoms: _351  and  _354
REMARK  147  A    between atoms: _354  and  _355
REMARK  148  A    between atoms: _358  and  _360
REMARK  149  A    between atoms: _360  and  _361
REMARK  150  A    between atoms: _360  and  _363
REMARK  151  A    between atoms: _363  and  _364
REMARK  152  A    between atoms: _367  and  _369
REMARK  153  A    between atoms: _369  and  _370
REMARK  154  A    between atoms: _369  and  _372
REMARK  155  A    between atoms: _372  and  _373
REMARK  156  A    between atoms: _376  and  _378
REMARK  157  A    between atoms: _378  and  _379
REMARK  158  A    between atoms: _378  and  _381
REMARK  159  A    between atoms: _381  and  _382
REMARK  160  A    between atoms: _387  and  _388
REMARK  161  A    between atoms: _390  and  _392
REMARK  162  A    between atoms: _392  and  _393
REMARK  163  A    between atoms: _392  and  _395
REMARK  164  A    between atoms: _395  and  _396
REMARK  165  A    between atoms: _401  and  _402
REMARK  166  A    between atoms: _404  and  _406
REMARK  167  A    between atoms: _406  and  _407
REMARK  168  A    between atoms: _406  and  _409
REMARK  169  A    between atoms: _409  and  _410
REMARK  170  A    between atoms: _413  and  _415
REMARK  171  A    between atoms: _415  and  _416
REMARK  172  A    between atoms: _415  and  _418
REMARK  173  A    between atoms: _418  and  _419
REMARK  174  A    between atoms: _422  and  _424
REMARK  175  A    between atoms: _424  and  _425
REMARK  176  A    between atoms: _424  and  _427
REMARK  177  A    between atoms: _427  and  _428
REMARK  178  A    between atoms: _428  and  _429
REMARK  179  A    between atoms: _434  and  _436
REMARK  180  A    between atoms: _436  and  _437
REMARK  181  A    between atoms: _436  and  _439
REMARK  182  A    between atoms: _442  and  _444
REMARK  183  A    between atoms: _444  and  _445
REMARK  184  A    between atoms: _444  and  _447
REMARK  185  A    between atoms: _447  and  _448
REMARK  186  A    between atoms: _451  and  _453
REMARK  187  A    between atoms: _453  and  _454
REMARK  188  A    between atoms: _453  and  _456
REMARK  189  A    between atoms: _456  and  _457
REMARK  190  A    between atoms: _459  and  _461
REMARK  191  A    between atoms: _461  and  _462
REMARK  192  A    between atoms: _464  and  _466
REMARK  193  A    between atoms: _466  and  _467
REMARK  194  A    between atoms: _466  and  _469
REMARK  195  A    between atoms: _469  and  _470
REMARK  196  A    between atoms: _470  and  _802
REMARK  197  A    between atoms: _471  and  _473
REMARK  198  A    between atoms: _473  and  _474
REMARK  199  A    between atoms: _473  and  _476
REMARK  200  A    between atoms: _476  and  _477
REMARK  201  A    between atoms: _482  and  _483
REMARK  202  A    between atoms: _485  and  _487
REMARK  203  A    between atoms: _487  and  _488
REMARK  204  A    between atoms: _487  and  _490
REMARK  205  A    between atoms: _490  and  _491
REMARK  206  A    between atoms: _491  and  _492
REMARK  207  A    between atoms: _497  and  _499
REMARK  208  A    between atoms: _499  and  _500
REMARK  209  A    between atoms: _499  and  _502
REMARK  210  A    between atoms: _502  and  _503
REMARK  211  A    between atoms: _503  and  _504
REMARK  212  A    between atoms: _509  and  _511
REMARK  213  A    between atoms: _511  and  _512
REMARK  214  A    between atoms: _511  and  _514
REMARK  215  A    between atoms: _514  and  _515
REMARK  216  A    between atoms: _520  and  _521
REMARK  217  A    between atoms: _523  and  _525
REMARK  218  A    between atoms: _525  and  _526
REMARK  219  A    between atoms: _529  and  _531
REMARK  220  A    between atoms: _531  and  _532
REMARK  221  A    between atoms: _531  and  _534
REMARK  222  A    between atoms: _534  and  _535
REMARK  223  A    between atoms: _540  and  _541
REMARK  224  A    between atoms: _543  and  _545
REMARK  225  A    between atoms: _545  and  _546
REMARK  226  A    between atoms: _545  and  _548
REMARK  227  A    between atoms: _548  and  _549
REMARK  228  A    between atoms: _552  and  _554
REMARK  229  A    between atoms: _554  and  _555
REMARK  230  A    between atoms: _554  and  _557
REMARK  231  A    between atoms: _559  and  _561
REMARK  232  A    between atoms: _561  and  _562
REMARK  233  A    between atoms: _561  and  _564
REMARK  234  A    between atoms: _564  and  _565
REMARK  235  A    between atoms: _568  and  _570
REMARK  236  A    between atoms: _570  and  _571
REMARK  237  A    between atoms: _570  and  _573
REMARK  238  A    between atoms: _573  and  _574
REMARK  239  A    between atoms: _579  and  _580
REMARK  240  A    between atoms: _582  and  _584
REMARK  241  A    between atoms: _584  and  _585
REMARK  242  A    between atoms: _584  and  _587
REMARK  243  A    between atoms: _587  and  _588
REMARK  244  A    between atoms: _591  and  _593
REMARK  245  A    between atoms: _593  and  _594
REMARK  246  A    between atoms: _593  and  _596
REMARK  247  A    between atoms: _596  and  _597
REMARK  248  A    between atoms: _607  and  _609
REMARK  249  A    between atoms: _609  and  _610
REMARK  250  A    between atoms: _613  and  _615
REMARK  251  A    between atoms: _615  and  _616
REMARK  252  A    between atoms: _619  and  _621
REMARK  253  A    between atoms: _621  and  _622
REMARK  254  A    between atoms: _621  and  _624
REMARK  255  A    between atoms: _624  and  _625
REMARK  256  A    between atoms: _628  and  _630
REMARK  257  A    between atoms: _630  and  _631
REMARK  258  A    between atoms: _630  and  _633
REMARK  259  A    between atoms: _633  and  _634
REMARK  260  A    between atoms: _637  and  _639
REMARK  261  A    between atoms: _639  and  _640
REMARK  262  A    between atoms: _639  and  _642
REMARK  263  A    between atoms: _642  and  _643
REMARK  264  A    between atoms: _646  and  _648
REMARK  265  A    between atoms: _648  and  _649
REMARK  266  A    between atoms: _648  and  _651
REMARK  267  A    between atoms: _651  and  _652
REMARK  268  A    between atoms: _652  and  _653
REMARK  269  A    between atoms: _653  and  _654
REMARK  270  A    between atoms: _654  and  _655
REMARK  271  A    between atoms: _659  and  _661
REMARK  272  A    between atoms: _661  and  _662
REMARK  273  A    between atoms: _661  and  _664
REMARK  274  A    between atoms: _664  and  _665
REMARK  275  A    between atoms: _670  and  _672
REMARK  276  A    between atoms: _672  and  _673
REMARK  277  A    between atoms: _672  and  _675
REMARK  278  A    between atoms: _675  and  _676
REMARK  279  A    between atoms: _676  and  _677
REMARK  280  A    between atoms: _677  and  _678
REMARK  281  A    between atoms: _678  and  _679
REMARK  282  A    between atoms: _683  and  _685
REMARK  283  A    between atoms: _685  and  _686
REMARK  284  A    between atoms: _685  and  _688
REMARK  285  A    between atoms: _688  and  _689
REMARK  286  A    between atoms: _699  and  _701
REMARK  287  A    between atoms: _701  and  _702
REMARK  288  A    between atoms: _701  and  _704
REMARK  289  A    between atoms: _704  and  _705
REMARK  290  A    between atoms: _705  and  _706
REMARK  291  A    between atoms: _711  and  _713
REMARK  292  A    between atoms: _713  and  _714
REMARK  293  A    between atoms: _717  and  _719
REMARK  294  A    between atoms: _719  and  _720
REMARK  295  A    between atoms: _722  and  _724
REMARK  296  A    between atoms: _724  and  _725
REMARK  297  A    between atoms: _724  and  _727
REMARK  298  A    between atoms: _727  and  _728
REMARK  299  A    between atoms: _728  and  _729
REMARK  300  A    between atoms: _732  and  _734
REMARK  301  A    between atoms: _734  and  _735
REMARK  302  A    between atoms: _738  and  _740
REMARK  303  A    between atoms: _740  and  _741
REMARK  304  A    between atoms: _740  and  _743
REMARK  305  A    between atoms: _743  and  _744
REMARK  306  A    between atoms: _744  and  _745
REMARK  307  A    between atoms: _745  and  _746
REMARK  308  A    between atoms: _755  and  _757
REMARK  309  A    between atoms: _757  and  _758
REMARK  310  A    between atoms: _757  and  _760
REMARK  311  A    between atoms: _760  and  _761
REMARK  312  A    between atoms: _764  and  _766
REMARK  313  A    between atoms: _766  and  _767
REMARK  314  A    between atoms: _766  and  _769
REMARK  315  A    between atoms: _769  and  _770
REMARK  316  A    between atoms: _775  and  _776
REMARK  317  A    between atoms: _778  and  _780
REMARK  318  A    between atoms: _780  and  _781
REMARK  319  A    between atoms: _780  and  _783
REMARK  320  A    between atoms: _783  and  _784
REMARK  321  A    between atoms: _787  and  _789
REMARK  322  A    between atoms: _789  and  _790
REMARK  323  A    between atoms: _789  and  _792
REMARK  324  A    between atoms: _792  and  _793
REMARK  325  A    between atoms: _796  and  _798
REMARK  326  A    between atoms: _798  and  _799
REMARK  327  A    between atoms: _798  and  _801
REMARK  328  A    between atoms: _801  and  _802
REMARK  329  A    between atoms: _803  and  _805
REMARK  330  A    between atoms: _805  and  _806
REMARK  331  A    between atoms: _805  and  _808
REMARK  332  A    between atoms: _811  and  _813
REMARK  333  A    between atoms: _813  and  _814
REMARK  334  A    between atoms: _813  and  _816
REMARK  335  A    between atoms: _816  and  _817
REMARK  336  A    between atoms: _817  and  _818
REMARK  337  A    between atoms: _821  and  _823
REMARK  338  A    between atoms: _823  and  _824
REMARK  339  A    between atoms: _823  and  _826
REMARK  340  A    between atoms: _826  and  _827
REMARK  341  A    between atoms: _837  and  _839
REMARK  342  A    between atoms: _839  and  _840
REMARK  343  A    between atoms: _839  and  _842
REMARK  344  A    between atoms: _842  and  _843
REMARK  345  A    between atoms: _846  and  _848
REMARK  346  A    between atoms: _848  and  _849
REMARK  347  A    between atoms: _848  and  _851
REMARK  348  A    between atoms: _851  and  _852
REMARK  349  A    between atoms: _852  and  _853
REMARK  350  A    between atoms: _853  and  _854
REMARK  351  A    between atoms: _863  and  _865
REMARK  352  A    between atoms: _865  and  _866
REMARK  353  A    between atoms: _865  and  _868
REMARK  354  A    between atoms: _868  and  _869
REMARK  355  A    between atoms: _874  and  _875
REMARK                            x       y       z     vdW  Elec       q    Type
REMARK                         _______ _______ _______ _____ _____    ______ ____
ROOT
ATOM      1  CA  TYR A   3      50.329  21.364  -0.147  0.00  0.00    +0.153 C 
ENDROOT
BRANCH   1   4
ATOM      2  C   ARG A   2      49.692  19.107   0.539  0.00  0.00    +0.241 C 
ATOM      3  O   ARG A   2      49.446  19.454   1.696  0.00  0.00    -0.273 OA
ATOM      4  N   TYR A   3      50.160  19.935  -0.389  0.00  0.00    -0.297 N 
ATOM      5  H   TYR A   3      50.415  19.551  -1.321  0.00  0.00    +0.150 HD
BRANCH   2   6
ATOM      6  CA  ARG A   2      49.477  17.666   0.094  0.00  0.00    +0.149 C 
BRANCH   6   8
ATOM      7  C   LEU A   1      50.583  15.654   0.918  0.00  0.00    +0.238 C 
ATOM      8  N   ARG A   2      49.832  16.731   1.158  0.00  0.00    -0.297 N 
ATOM      9  H   ARG A   2      49.492  16.908   2.125  0.00  0.00    +0.150 HD
ATOM     10  O   LEU A   1      51.072  15.398  -0.189  0.00  0.00    -0.274 OA
BRANCH   7  11
ATOM     11  CA  LEU A   1      50.806  14.696   2.072  0.00  0.00    +0.145 C 
BRANCH  11  12
ATOM     12  N   LEU A   1      50.304  13.407   1.605  0.00  0.00    -0.238 NA
ATOM     13  H   LEU A   1      50.748  12.982   0.766  0.00  0.00    +0.142 HD
ENDBRANCH  11  12
BRANCH  11  14
ATOM     14  CB  LEU A   1      52.296  14.607   2.407  0.00  0.00    +0.026 C 
BRANCH  14  15
ATOM     15  CG  LEU A   1      53.016  15.904   2.785  0.00  0.00    +0.002 C 
ATOM     16  CD2 LEU A   1      52.380  16.545   4.003  0.00  0.00    +0.000 C 
ATOM     17  CD1 LEU A   1      54.495  15.644   3.044  0.00  0.00    +0.000 C 
ENDBRANCH  14  15
ENDBRANCH  11  14
ENDBRANCH   7  11
ENDBRANCH   6   8
BRANCH   6  18
ATOM     18  CB  ARG A   2      48.022  17.459  -0.339  0.00  0.00    +0.033 C 
BRANCH  18  19
ATOM     19  CG  ARG A   2      47.770  16.139  -1.050  0.00  0.00    +0.045 C 
BRANCH  19  20
ATOM     20  CD  ARG A   2      46.285  15.888  -1.293  0.00  0.00    +0.174 C 
BRANCH  20  21
ATOM     21  NE  ARG A   2      46.058  14.552  -1.836  0.00  0.00    -0.265 N 
ATOM     22  CZ  ARG A   2      44.978  13.816  -1.595  0.00  0.00    +0.342 C 
ATOM     23  NH2 ARG A   2      44.013  14.281  -0.812  0.00  0.00    -0.292 N 
ATOM     24 HH21 ARG A   2      44.100  15.225  -0.384  0.00  0.00    +0.255 HD
ATOM     25 HH22 ARG A   2      43.170  13.702  -0.626  0.00  0.00    +0.255 HD
ATOM     26  NH1 ARG A   2      44.868  12.612  -2.131  0.00  0.00    -0.292 N 
ATOM     27 HH11 ARG A   2      44.024  12.035  -1.944  0.00  0.00    +0.255 HD
ATOM     28 HH12 ARG A   2      45.626  12.243  -2.740  0.00  0.00    +0.255 HD
ATOM     29  HE  ARG A   2      46.791  14.149  -2.453  0.00  0.00    +0.259 HD
ENDBRANCH  20  21
ENDBRANCH  19  20
ENDBRANCH  18  19
ENDBRANCH   6  18
ENDBRANCH   2   6
ENDBRANCH   1   4
BRANCH   1  30
ATOM     30  C   TYR A   3      49.548  22.140  -1.186  0.00  0.00    +0.241 C 
ATOM     31  N   PHE A   4      48.597  22.935  -0.705  0.00  0.00    -0.297 N 
ATOM     32  H   PHE A   4      48.423  22.936   0.320  0.00  0.00    +0.150 HD
ATOM     33  O   TYR A   3      49.787  21.997  -2.396  0.00  0.00    -0.273 OA
BRANCH  31  34
ATOM     34  CA  PHE A   4      47.788  23.805  -1.548  0.00  0.00    +0.153 C 
BRANCH  34  35
ATOM     35  C   PHE A   4      48.361  25.218  -1.460  0.00  0.00    +0.241 C 
ATOM     36  O   PHE A   4      48.440  25.790  -0.377  0.00  0.00    -0.273 OA
ATOM     37  N   VAL A   5      48.768  25.765  -2.599  0.00  0.00    -0.297 N 
ATOM     38  H   VAL A   5      48.672  25.222  -3.481  0.00  0.00    +0.150 HD
BRANCH  37  39
ATOM     39  CA  VAL A   5      49.345  27.103  -2.654  0.00  0.00    +0.149 C 
BRANCH  39  40
ATOM     40  C   VAL A   5      48.468  28.009  -3.507  0.00  0.00    +0.241 C 
ATOM     41  N   THR A   6      48.298  29.251  -3.054  0.00  0.00    -0.295 N 
ATOM     42  H   THR A   6      48.734  29.519  -2.149  0.00  0.00    +0.150 HD
ATOM     43  O   VAL A   5      47.968  27.588  -4.551  0.00  0.00    -0.273 OA
BRANCH  41  44
ATOM     44  CA  THR A   6      47.525  30.244  -3.781  0.00  0.00    +0.176 C 
BRANCH  44  45
ATOM     45  C   THR A   6      48.173  31.619  -3.696  0.00  0.00    +0.243 C 
ATOM     46  O   THR A   6      48.551  32.066  -2.615  0.00  0.00    -0.273 OA
ATOM     47  N   ALA A   7      48.299  32.284  -4.839  0.00  0.00    -0.298 N 
ATOM     48  H   ALA A   7      48.077  31.800  -5.733  0.00  0.00    +0.150 HD
BRANCH  47  49
ATOM     49  CA  ALA A   7      48.740  33.675  -4.875  0.00  0.00    +0.137 C 
ATOM     50  CB  ALA A   7      50.117  33.793  -5.504  0.00  0.00    +0.030 C 
BRANCH  49  51
ATOM     51  C   ALA A   7      47.719  34.504  -5.639  0.00  0.00    +0.227 C 
ATOM     52  O   ALA A   7      47.316  34.135  -6.740  0.00  0.00    -0.286 OA
ENDBRANCH  49  51
ENDBRANCH  47  49
ENDBRANCH  44  45
BRANCH  44  53
ATOM     53  CB  THR A   6      46.093  30.360  -3.223  0.00  0.00    +0.137 C 
ATOM     54  CG2 THR A   6      45.207  31.107  -4.182  0.00  0.00    +0.034 C 
BRANCH  53  55
ATOM     55  OG1 THR A   6      45.554  29.052  -3.009  0.00  0.00    -0.382 OA
ATOM     56  HG1 THR A   6      46.122  28.564  -2.361  0.00  0.00    +0.210 HD
ENDBRANCH  53  55
ENDBRANCH  44  53
ENDBRANCH  41  44
ENDBRANCH  39  40
BRANCH  39  57
ATOM     57  CB  VAL A   5      50.778  27.079  -3.226  0.00  0.00    +0.027 C 
ATOM     58  CG2 VAL A   5      51.708  26.357  -2.267  0.00  0.00    +0.002 C 
ATOM     59  CG1 VAL A   5      51.287  28.492  -3.475  0.00  0.00    +0.002 C 
ENDBRANCH  39  57
ENDBRANCH  37  39
ENDBRANCH  34  35
BRANCH  34  60
ATOM     60  CB  PHE A   4      46.329  23.815  -1.079  0.00  0.00    +0.055 C 
BRANCH  60  61
ATOM     61  CG  PHE A   4      45.629  22.500  -1.238  0.00  0.00    -0.020 A 
ATOM     62  CD2 PHE A   4      45.823  21.480  -0.321  0.00  0.00    -0.004 A 
ATOM     63  CE2 PHE A   4      45.177  20.264  -0.467  0.00  0.00    -0.000 A 
ATOM     64  CZ  PHE A   4      44.325  20.056  -1.539  0.00  0.00    -0.000 A 
ATOM     65  CE1 PHE A   4      44.125  21.066  -2.462  0.00  0.00    -0.000 A 
ATOM     66  CD1 PHE A   4      44.772  22.280  -2.308  0.00  0.00    -0.004 A 
ENDBRANCH  60  61
ENDBRANCH  34  60
ENDBRANCH  31  34
ENDBRANCH   1  30
BRANCH   1  67
ATOM     67  CB  TYR A   3      51.804  21.756  -0.170  0.00  0.00    +0.055 C 
BRANCH  67  68
ATOM     68  CG  TYR A   3      52.527  21.304   1.081  0.00  0.00    -0.020 A 
ATOM     69  CD2 TYR A   3      52.566  22.112   2.212  0.00  0.00    -0.001 A 
ATOM     70  CE2 TYR A   3      53.216  21.703   3.369  0.00  0.00    +0.036 A 
ATOM     71  CZ  TYR A   3      53.833  20.459   3.398  0.00  0.00    +0.134 A 
ATOM     72  CE1 TYR A   3      53.812  19.640   2.283  0.00  0.00    +0.036 A 
ATOM     73  CD1 TYR A   3      53.160  20.060   1.135  0.00  0.00    -0.001 A 
BRANCH  71  74
ATOM     74  OH  TYR A   3      54.489  20.042   4.534  0.00  0.00    -0.506 OA
ATOM     75  HH  TYR A   3      54.410  20.738   5.234  0.00  0.00    +0.292 HD
ENDBRANCH  71  74
ENDBRANCH  67  68
ENDBRANCH   1  67
TORSDOF 28
REMARK  Name = ../refined-set-2016/4pge/4pge_pocket.pdb
REMARK  355 active torsions:
REMARK  status: ('A' for Active; 'I' for Inactive)
REMARK    1  A    between atoms: _1  and  _3
REMARK    2  A    between atoms: _3  and  _4
REMARK    3  A    between atoms: _3  and  _6
REMARK    4  A    between atoms: _6  and  _7
REMARK    5  A    between atoms: _10  and  _12
REMARK    6  A    between atoms: _12  and  _13
REMARK    7  A    between atoms: _12  and  _15
REMARK    8  A    between atoms: _15  and  _16
REMARK    9  A    between atoms: _16  and  _17
REMARK   10  A    between atoms: _17  and  _18
REMARK   11  A    between atoms: _27  and  _29
REMARK   12  A    between atoms: _29  and  _30
REMARK   13  A    between atoms: _29  and  _32
REMARK   14  A    between atoms: _32  and  _33
REMARK   15  A    between atoms: _38  and  _39
REMARK   16  A    between atoms: _41  and  _43
REMARK   17  A    between atoms: _43  and  _44
REMARK   18  A    between atoms: _43  and  _46
REMARK   19  A    between atoms: _46  and  _47
REMARK   20  A    between atoms: _53  and  _55
REMARK   21  A    between atoms: _55  and  _56
REMARK   22  A    between atoms: _55  and  _58
REMARK   23  A    between atoms: _61  and  _63
REMARK   24  A    between atoms: _63  and  _64
REMARK   25  A    between atoms: _63  and  _66
REMARK   26  A    between atoms: _66  and  _67
REMARK   27  A    between atoms: _70  and  _72
REMARK   28  A    between atoms: _72  and  _73
REMARK   29  A    between atoms: _76  and  _78
REMARK   30  A    between atoms: _78  and  _79
REMARK   31  A    between atoms: _78  and  _81
REMARK   32  A    between atoms: _81  and  _82
REMARK   33  A    between atoms: _87  and  _88
REMARK   34  A    between atoms: _90  and  _92
REMARK   35  A    between atoms: _92  and  _93
REMARK   36  A    between atoms: _92  and  _95
REMARK   37  A    between atoms: _95  and  _96
REMARK   38  A    between atoms: _96  and  _97
REMARK   39  A    between atoms: _99  and  _101
REMARK   40  A    between atoms: _101  and  _102
REMARK   41  A    between atoms: _101  and  _104
REMARK   42  A    between atoms: _104  and  _105
REMARK   43  A    between atoms: _105  and  _106
REMARK   44  A    between atoms: _109  and  _111
REMARK   45  A    between atoms: _111  and  _112
REMARK   46  A    between atoms: _111  and  _114
REMARK   47  A    between atoms: _117  and  _119
REMARK   48  A    between atoms: _119  and  _120
REMARK   49  A    between atoms: _122  and  _124
REMARK   50  A    between atoms: _124  and  _125
REMARK   51  A    between atoms: _124  and  _127
REMARK   52  A    between atoms: _130  and  _132
REMARK   53  A    between atoms: _132  and  _133
REMARK   54  A    between atoms: _132  and  _135
REMARK   55  A    between atoms: _135  and  _136
REMARK   56  A    between atoms: _142  and  _144
REMARK   57  A    between atoms: _144  and  _145
REMARK   58  A    between atoms: _144  and  _147
REMARK   59  A    between atoms: _150  and  _152
REMARK   60  A    between atoms: _152  and  _153
REMARK   61  A    between atoms: _152  and  _155
REMARK   62  A    between atoms: _155  and  _156
REMARK   63  A    between atoms: _161  and  _162
REMARK   64  A    between atoms: _164  and  _166
REMARK   65  A    between atoms: _166  and  _167
REMARK   66  A    between atoms: _166  and  _169
REMARK   67  A    between atoms: _169  and  _170
REMARK   68  A    between atoms: _170  and  _171
REMARK   69  A    between atoms: _173  and  _175
REMARK   70  A    between atoms: _175  and  _176
REMARK   71  A    between atoms: _175  and  _178
REMARK   72  A    between atoms: _178  and  _179
REMARK   73  A    between atoms: _179  and  _180
REMARK   74  A    between atoms: _183  and  _185
REMARK   75  A    between atoms: _185  and  _186
REMARK   76  A    between atoms: _185  and  _188
REMARK   77  A    between atoms: _188  and  _189
REMARK   78  A    between atoms: _189  and  _190
REMARK   79  A    between atoms: _193  and  _195
REMARK   80  A    between atoms: _195  and  _196
REMARK   81  A    between atoms: _195  and  _198
REMARK   82  A    between atoms: _198  and  _199
REMARK   83  A    between atoms: _204  and  _205
REMARK   84  A    between atoms: _207  and  _209
REMARK   85  A    between atoms: _209  and  _210
REMARK   86  A    between atoms: _209  and  _212
REMARK   87  A    between atoms: _212  and  _213
REMARK   88  A    between atoms: _213  and  _214
REMARK   89  A    between atoms: _214  and  _215
REMARK   90  A    between atoms: _224  and  _226
REMARK   91  A    between atoms: _226  and  _227
REMARK   92  A    between atoms: _226  and  _229
REMARK   93  A    between atoms: _229  and  _230
REMARK   94  A    between atoms: _230  and  _231
REMARK   95  A    between atoms: _234  and  _236
REMARK   96  A    between atoms: _236  and  _237
REMARK   97  A    between atoms: _236  and  _239
REMARK   98  A    between atoms: _239  and  _240
REMARK   99  A    between atoms: _243  and  _245
REMARK  100  A    between atoms: _245  and  _246
REMARK  101  A    between atoms: _245  and  _248
REMARK  102  A    between atoms: _248  and  _249
REMARK  103  A    between atoms: _249  and  _250
REMARK  104  A    between atoms: _255  and  _257
REMARK  105  A    between atoms: _257  and  _258
REMARK  106  A    between atoms: _257  and  _260
REMARK  107  A    between atoms: _260  and  _261
REMARK  108  A    between atoms: _261  and  _262
REMARK  109  A    between atoms: _262  and  _263
REMARK  110  A    between atoms: _263  and  _264
REMARK  111  A    between atoms: _268  and  _270
REMARK  112  A    between atoms: _270  and  _271
REMARK  113  A    between atoms: _274  and  _276
REMARK  114  A    between atoms: _276  and  _277
REMARK  115  A    between atoms: _279  and  _281
REMARK  116  A    between atoms: _281  and  _282
REMARK  117  A    between atoms: _281  and  _284
REMARK  118  A    between atoms: _284  and  _285
REMARK  119  A    between atoms: _290  and  _292
REMARK  120  A    between atoms: _292  and  _293
REMARK  121  A    between atoms: _292  and  _295
REMARK  122  A    between atoms: _295  and  _296
REMARK  123  A    between atoms: _296  and  _297
REMARK  124  A    between atoms: _300  and  _302
REMARK  125  A    between atoms: _302  and  _303
REMARK  126  A    between atoms: _302  and  _305
REMARK  127  A    between atoms: _305  and  _306
REMARK  128  A    between atoms: _306  and  _307
REMARK  129  A    between atoms: _312  and  _314
REMARK  130  A    between atoms: _314  and  _315
REMARK  131  A    between atoms: _314  and  _317
REMARK  132  A    between atoms: _317  and  _318
REMARK  133  A    between atoms: _320  and  _322
REMARK  134  A    between atoms: _322  and  _323
REMARK  135  A    between atoms: _322  and  _325
REMARK  136  A    between atoms: _325  and  _326
REMARK  137  A    between atoms: _332  and  _334
REMARK  138  A    between atoms: _334  and  _335
REMARK  139  A    between atoms: _334  and  _337
REMARK  140  A    between atoms: _340  and  _342
REMARK  141  A    between atoms: _342  and  _343
REMARK  142  A    between atoms: _342  and  _345
REMARK  143  A    between atoms: _345  and  _346
REMARK  144  A    between atoms: _349  and  _351
REMARK  145  A    between atoms: _351  and  _352
REMARK  146  A    between atoms: _351  and  _354
REMARK  147  A    between atoms: _354  and  _355
REMARK  148  A    between atoms: _358  and  _360
REMARK  149  A    between atoms: _360  and  _361
REMARK  150  A    between atoms: _360  and  _363
REMARK  151  A    between atoms: _363  and  _364
REMARK  152  A    between atoms: _367  and  _369
REMARK  153  A    between atoms: _369  and  _370
REMARK  154  A    between atoms: _369  and  _372
REMARK  155  A    between atoms: _372  and  _373
REMARK  156  A    between atoms: _376  and  _378
REMARK  157  A    between atoms: _378  and  _379
REMARK  158  A    between atoms: _378  and  _381
REMARK  159  A    between atoms: _381  and  _382
REMARK  160  A    between atoms: _387  and  _388
REMARK  161  A    between atoms: _390  and  _392
REMARK  162  A    between atoms: _392  and  _393
REMARK  163  A    between atoms: _392  and  _395
REMARK  164  A    between atoms: _395  and  _396
REMARK  165  A    between atoms: _401  and  _402
REMARK  166  A    between atoms: _404  and  _406
REMARK  167  A    between atoms: _406  and  _407
REMARK  168  A    between atoms: _406  and  _409
REMARK  169  A    between atoms: _409  and  _410
REMARK  170  A    between atoms: _413  and  _415
REMARK  171  A    between atoms: _415  and  _416
REMARK  172  A    between atoms: _415  and  _418
REMARK  173  A    between atoms: _418  and  _419
REMARK  174  A    between atoms: _422  and  _424
REMARK  175  A    between atoms: _424  and  _425
REMARK  176  A    between atoms: _424  and  _427
REMARK  177  A    between atoms: _427  and  _428
REMARK  178  A    between atoms: _428  and  _429
REMARK  179  A    between atoms: _434  and  _436
REMARK  180  A    between atoms: _436  and  _437
REMARK  181  A    between atoms: _436  and  _439
REMARK  182  A    between atoms: _442  and  _444
REMARK  183  A    between atoms: _444  and  _445
REMARK  184  A    between atoms: _444  and  _447
REMARK  185  A    between atoms: _447  and  _448
REMARK  186  A    between atoms: _451  and  _453
REMARK  187  A    between atoms: _453  and  _454
REMARK  188  A    between atoms: _453  and  _456
REMARK  189  A    between atoms: _456  and  _457
REMARK  190  A    between atoms: _459  and  _461
REMARK  191  A    between atoms: _461  and  _462
REMARK  192  A    between atoms: _464  and  _466
REMARK  193  A    between atoms: _466  and  _467
REMARK  194  A    between atoms: _466  and  _469
REMARK  195  A    between atoms: _469  and  _470
REMARK  196  A    between atoms: _470  and  _802
REMARK  197  A    between atoms: _471  and  _473
REMARK  198  A    between atoms: _473  and  _474
REMARK  199  A    between atoms: _473  and  _476
REMARK  200  A    between atoms: _476  and  _477
REMARK  201  A    between atoms: _482  and  _483
REMARK  202  A    between atoms: _485  and  _487
REMARK  203  A    between atoms: _487  and  _488
REMARK  204  A    between atoms: _487  and  _490
REMARK  205  A    between atoms: _490  and  _491
REMARK  206  A    between atoms: _491  and  _492
REMARK  207  A    between atoms: _497  and  _499
REMARK  208  A    between atoms: _499  and  _500
REMARK  209  A    between atoms: _499  and  _502
REMARK  210  A    between atoms: _502  and  _503
REMARK  211  A    between atoms: _503  and  _504
REMARK  212  A    between atoms: _509  and  _511
REMARK  213  A    between atoms: _511  and  _512
REMARK  214  A    between atoms: _511  and  _514
REMARK  215  A    between atoms: _514  and  _515
REMARK  216  A    between atoms: _520  and  _521
REMARK  217  A    between atoms: _523  and  _525
REMARK  218  A    between atoms: _525  and  _526
REMARK  219  A    between atoms: _529  and  _531
REMARK  220  A    between atoms: _531  and  _532
REMARK  221  A    between atoms: _531  and  _534
REMARK  222  A    between atoms: _534  and  _535
REMARK  223  A    between atoms: _540  and  _541
REMARK  224  A    between atoms: _543  and  _545
REMARK  225  A    between atoms: _545  and  _546
REMARK  226  A    between atoms: _545  and  _548
REMARK  227  A    between atoms: _548  and  _549
REMARK  228  A    between atoms: _552  and  _554
REMARK  229  A    between atoms: _554  and  _555
REMARK  230  A    between atoms: _554  and  _557
REMARK  231  A    between atoms: _559  and  _561
REMARK  232  A    between atoms: _561  and  _562
REMARK  233  A    between atoms: _561  and  _564
REMARK  234  A    between atoms: _564  and  _565
REMARK  235  A    between atoms: _568  and  _570
REMARK  236  A    between atoms: _570  and  _571
REMARK  237  A    between atoms: _570  and  _573
REMARK  238  A    between atoms: _573  and  _574
REMARK  239  A    between atoms: _579  and  _580
REMARK  240  A    between atoms: _582  and  _584
REMARK  241  A    between atoms: _584  and  _585
REMARK  242  A    between atoms: _584  and  _587
REMARK  243  A    between atoms: _587  and  _588
REMARK  244  A    between atoms: _591  and  _593
REMARK  245  A    between atoms: _593  and  _594
REMARK  246  A    between atoms: _593  and  _596
REMARK  247  A    between atoms: _596  and  _597
REMARK  248  A    between atoms: _607  and  _609
REMARK  249  A    between atoms: _609  and  _610
REMARK  250  A    between atoms: _613  and  _615
REMARK  251  A    between atoms: _615  and  _616
REMARK  252  A    between atoms: _619  and  _621
REMARK  253  A    between atoms: _621  and  _622
REMARK  254  A    between atoms: _621  and  _624
REMARK  255  A    between atoms: _624  and  _625
REMARK  256  A    between atoms: _628  and  _630
REMARK  257  A    between atoms: _630  and  _631
REMARK  258  A    between atoms: _630  and  _633
REMARK  259  A    between atoms: _633  and  _634
REMARK  260  A    between atoms: _637  and  _639
REMARK  261  A    between atoms: _639  and  _640
REMARK  262  A    between atoms: _639  and  _642
REMARK  263  A    between atoms: _642  and  _643
REMARK  264  A    between atoms: _646  and  _648
REMARK  265  A    between atoms: _648  and  _649
REMARK  266  A    between atoms: _648  and  _651
REMARK  267  A    between atoms: _651  and  _652
REMARK  268  A    between atoms: _652  and  _653
REMARK  269  A    between atoms: _653  and  _654
REMARK  270  A    between atoms: _654  and  _655
REMARK  271  A    between atoms: _659  and  _661
REMARK  272  A    between atoms: _661  and  _662
REMARK  273  A    between atoms: _661  and  _664
REMARK  274  A    between atoms: _664  and  _665
REMARK  275  A    between atoms: _670  and  _672
REMARK  276  A    between atoms: _672  and  _673
REMARK  277  A    between atoms: _672  and  _675
REMARK  278  A    between atoms: _675  and  _676
REMARK  279  A    between atoms: _676  and  _677
REMARK  280  A    between atoms: _677  and  _678
REMARK  281  A    between atoms: _678  and  _679
REMARK  282  A    between atoms: _683  and  _685
REMARK  283  A    between atoms: _685  and  _686
REMARK  284  A    between atoms: _685  and  _688
REMARK  285  A    between atoms: _688  and  _689
REMARK  286  A    between atoms: _699  and  _701
REMARK  287  A    between atoms: _701  and  _702
REMARK  288  A    between atoms: _701  and  _704
REMARK  289  A    between atoms: _704  and  _705
REMARK  290  A    between atoms: _705  and  _706
REMARK  291  A    between atoms: _711  and  _713
REMARK  292  A    between atoms: _713  and  _714
REMARK  293  A    between atoms: _717  and  _719
REMARK  294  A    between atoms: _719  and  _720
REMARK  295  A    between atoms: _722  and  _724
REMARK  296  A    between atoms: _724  and  _725
REMARK  297  A    between atoms: _724  and  _727
REMARK  298  A    between atoms: _727  and  _728
REMARK  299  A    between atoms: _728  and  _729
REMARK  300  A    between atoms: _732  and  _734
REMARK  301  A    between atoms: _734  and  _735
REMARK  302  A    between atoms: _738  and  _740
REMARK  303  A    between atoms: _740  and  _741
REMARK  304  A    between atoms: _740  and  _743
REMARK  305  A    between atoms: _743  and  _744
REMARK  306  A    between atoms: _744  and  _745
REMARK  307  A    between atoms: _745  and  _746
REMARK  308  A    between atoms: _755  and  _757
REMARK  309  A    between atoms: _757  and  _758
REMARK  310  A    between atoms: _757  and  _760
REMARK  311  A    between atoms: _760  and  _761
REMARK  312  A    between atoms: _764  and  _766
REMARK  313  A    between atoms: _766  and  _767
REMARK  314  A    between atoms: _766  and  _769
REMARK  315  A    between atoms: _769  and  _770
REMARK  316  A    between atoms: _775  and  _776
REMARK  317  A    between atoms: _778  and  _780
REMARK  318  A    between atoms: _780  and  _781
REMARK  319  A    between atoms: _780  and  _783
REMARK  320  A    between atoms: _783  and  _784
REMARK  321  A    between atoms: _787  and  _789
REMARK  322  A    between atoms: _789  and  _790
REMARK  323  A    between atoms: _789  and  _792
REMARK  324  A    between atoms: _792  and  _793
REMARK  325  A    between atoms: _796  and  _798
REMARK  326  A    between atoms: _798  and  _799
REMARK  327  A    between atoms: _798  and  _801
REMARK  328  A    between atoms: _801  and  _802
REMARK  329  A    between atoms: _803  and  _805
REMARK  330  A    between atoms: _805  and  _806
REMARK  331  A    between atoms: _805  and  _808
REMARK  332  A    between atoms: _811  and  _813
REMARK  333  A    between atoms: _813  and  _814
REMARK  334  A    between atoms: _813  and  _816
REMARK  335  A    between atoms: _816  and  _817
REMARK  336  A    between atoms: _817  and  _818
REMARK  337  A    between atoms: _821  and  _823
REMARK  338  A    between atoms: _823  and  _824
REMARK  339  A    between atoms: _823  and  _826
REMARK  340  A    between atoms: _826  and  _827
REMARK  341  A    between atoms: _837  and  _839
REMARK  342  A    between atoms: _839  and  _840
REMARK  343  A    between atoms: _839  and  _842
REMARK  344  A    between atoms: _842  and  _843
REMARK  345  A    between atoms: _846  and  _848
REMARK  346  A    between atoms: _848  and  _849
REMARK  347  A    between atoms: _848  and  _851
REMARK  348  A    between atoms: _851  and  _852
REMARK  349  A    between atoms: _852  and  _853
REMARK  350  A    between atoms: _853  and  _854
REMARK  351  A    between atoms: _863  and  _865
REMARK  352  A    between atoms: _865  and  _866
REMARK  353  A    between atoms: _865  and  _868
REMARK  354  A    between atoms: _868  and  _869
REMARK  355  A    between atoms: _874  and  _875
REMARK                            x       y       z     vdW  Elec       q    Type
REMARK                         _______ _______ _______ _____ _____    ______ ____
ROOT
ATOM      1  C   MET A   2      49.396  29.925   0.845  0.00  0.00    +0.241 C 
ATOM      2  N   GLU A   3      49.845  29.169   1.843  0.00  0.00    -0.297 N 
ATOM      3  H   GLU A   3      49.984  29.607   2.776  0.00  0.00    +0.150 HD
ATOM      4  O   MET A   2      49.393  29.561  -0.331  0.00  0.00    -0.273 OA
ENDROOT
BRANCH   2   5
ATOM      5  CA  GLU A   3      50.149  27.757   1.686  0.00  0.00    +0.149 C 
BRANCH   5   6
ATOM      6  C   GLU A   3      49.377  27.026   2.762  0.00  0.00    +0.241 C 
ATOM      7  O   GLU A   3      49.372  27.472   3.900  0.00  0.00    -0.273 OA
ATOM      8  N   VAL A   4      48.733  25.917   2.407  0.00  0.00    -0.297 N 
ATOM      9  H   VAL A   4      48.728  25.632   1.407  0.00  0.00    +0.150 HD
BRANCH   8  10
ATOM     10  CA  VAL A   4      48.031  25.088   3.388  0.00  0.00    +0.149 C 
BRANCH  10  11
ATOM     11  C   VAL A   4      48.432  23.644   3.159  0.00  0.00    +0.241 C 
ATOM     12  N   GLY A   5      48.908  22.991   4.216  0.00  0.00    -0.296 N 
ATOM     13  H   GLY A   5      48.961  23.489   5.128  0.00  0.00    +0.150 HD
ATOM     14  O   VAL A   4      48.341  23.151   2.040  0.00  0.00    -0.273 OA
BRANCH  12  15
ATOM     15  CA  GLY A   5      49.360  21.602   4.148  0.00  0.00    +0.163 C 
BRANCH  15  16
ATOM     16  C   GLY A   5      48.362  20.663   4.793  0.00  0.00    +0.229 C 
ATOM     17  O   GLY A   5      47.790  20.989   5.844  0.00  0.00    -0.286 OA
ENDBRANCH  15  16
ENDBRANCH  12  15
ENDBRANCH  10  11
BRANCH  10  18
ATOM     18  CB  VAL A   4      46.502  25.215   3.261  0.00  0.00    +0.027 C 
ATOM     19  CG2 VAL A   4      45.815  24.544   4.445  0.00  0.00    +0.002 C 
ATOM     20  CG1 VAL A   4      46.103  26.677   3.159  0.00  0.00    +0.002 C 
ENDBRANCH  10  18
ENDBRANCH   8  10
ENDBRANCH   5   6
BRANCH   5  21
ATOM     21  CB  GLU A   3      51.643  27.472   1.874  0.00  0.00    +0.041 C 
BRANCH  21  22
ATOM     22  CG  GLU A   3      52.568  28.326   1.023  0.00  0.00    +0.116 C 
BRANCH  22  23
ATOM     23  CD  GLU A   3      53.974  27.753   0.894  0.00  0.00    +0.365 C 
ATOM     24  OE2 GLU A   3      54.257  26.675   1.468  0.00  0.00    -0.246 OA
ATOM     25  OE1 GLU A   3      54.796  28.383   0.193  0.00  0.00    -0.246 OA
ENDBRANCH  22  23
ENDBRANCH  21  22
ENDBRANCH   5  21
ENDBRANCH   2   5
BRANCH   1  26
ATOM     26  CA  MET A   2      48.887  31.312   1.245  0.00  0.00    +0.149 C 
BRANCH  26  29
ATOM     27  C   TYR A   1      49.679  33.539   0.589  0.00  0.00    +0.239 C 
ATOM     28  O   TYR A   1      49.909  33.889   1.751  0.00  0.00    -0.274 OA
ATOM     29  N   MET A   2      49.206  32.335   0.255  0.00  0.00    -0.297 N 
ATOM     30  H   MET A   2      49.059  32.118  -0.752  0.00  0.00    +0.150 HD
BRANCH  27  31
ATOM     31  CA  TYR A   1      49.960  34.491  -0.561  0.00  0.00    +0.149 C 
BRANCH  31  32
ATOM     32  N   TYR A   1      49.285  35.762  -0.359  0.00  0.00    -0.238 NA
ATOM     33  H   TYR A   1      49.413  36.269   0.540  0.00  0.00    +0.142 HD
ENDBRANCH  31  32
BRANCH  31  34
ATOM     34  CB  TYR A   1      51.468  34.689  -0.700  0.00  0.00    +0.053 C 
BRANCH  34  35
ATOM     35  CG  TYR A   1      52.164  33.386  -0.996  0.00  0.00    -0.020 A 
ATOM     36  CD2 TYR A   1      52.890  32.720  -0.025  0.00  0.00    -0.001 A 
ATOM     37  CE2 TYR A   1      53.505  31.504  -0.298  0.00  0.00    +0.036 A 
ATOM     38  CZ  TYR A   1      53.394  30.950  -1.563  0.00  0.00    +0.134 A 
ATOM     39  CE1 TYR A   1      52.671  31.593  -2.539  0.00  0.00    +0.036 A 
ATOM     40  CD1 TYR A   1      52.060  32.800  -2.257  0.00  0.00    -0.001 A 
BRANCH  38  41
ATOM     41  OH  TYR A   1      53.994  29.744  -1.860  0.00  0.00    -0.506 OA
ATOM     42  HH  TYR A   1      53.631  29.041  -1.265  0.00  0.00    +0.292 HD
ENDBRANCH  38  41
ENDBRANCH  34  35
ENDBRANCH  31  34
ENDBRANCH  27  31
ENDBRANCH  26  29
BRANCH  26  43
ATOM     43  CB  MET A   2      47.374  31.225   1.451  0.00  0.00    +0.041 C 
BRANCH  43  44
ATOM     44  CG  MET A   2      46.734  32.493   1.993  0.00  0.00    +0.060 C 
BRANCH  44  45
ATOM     45  SD  MET A   2      44.977  32.244   2.328  0.00  0.00    -0.139 S 
ATOM     46  CE  MET A   2      45.064  31.308   3.854  0.00  0.00    +0.069 C 
ENDBRANCH  44  45
ENDBRANCH  43  44
ENDBRANCH  26  43
ENDBRANCH   1  26
TORSDOF 20
REMARK  Name = ../refined-set-2016/4pge/4pge_pocket.pdb
REMARK  355 active torsions:
REMARK  status: ('A' for Active; 'I' for Inactive)
REMARK    1  A    between atoms: _1  and  _3
REMARK    2  A    between atoms: _3  and  _4
REMARK    3  A    between atoms: _3  and  _6
REMARK    4  A    between atoms: _6  and  _7
REMARK    5  A    between atoms: _10  and  _12
REMARK    6  A    between atoms: _12  and  _13
REMARK    7  A    between atoms: _12  and  _15
REMARK    8  A    between atoms: _15  and  _16
REMARK    9  A    between atoms: _16  and  _17
REMARK   10  A    between atoms: _17  and  _18
REMARK   11  A    between atoms: _27  and  _29
REMARK   12  A    between atoms: _29  and  _30
REMARK   13  A    between atoms: _29  and  _32
REMARK   14  A    between atoms: _32  and  _33
REMARK   15  A    between atoms: _38  and  _39
REMARK   16  A    between atoms: _41  and  _43
REMARK   17  A    between atoms: _43  and  _44
REMARK   18  A    between atoms: _43  and  _46
REMARK   19  A    between atoms: _46  and  _47
REMARK   20  A    between atoms: _53  and  _55
REMARK   21  A    between atoms: _55  and  _56
REMARK   22  A    between atoms: _55  and  _58
REMARK   23  A    between atoms: _61  and  _63
REMARK   24  A    between atoms: _63  and  _64
REMARK   25  A    between atoms: _63  and  _66
REMARK   26  A    between atoms: _66  and  _67
REMARK   27  A    between atoms: _70  and  _72
REMARK   28  A    between atoms: _72  and  _73
REMARK   29  A    between atoms: _76  and  _78
REMARK   30  A    between atoms: _78  and  _79
REMARK   31  A    between atoms: _78  and  _81
REMARK   32  A    between atoms: _81  and  _82
REMARK   33  A    between atoms: _87  and  _88
REMARK   34  A    between atoms: _90  and  _92
REMARK   35  A    between atoms: _92  and  _93
REMARK   36  A    between atoms: _92  and  _95
REMARK   37  A    between atoms: _95  and  _96
REMARK   38  A    between atoms: _96  and  _97
REMARK   39  A    between atoms: _99  and  _101
REMARK   40  A    between atoms: _101  and  _102
REMARK   41  A    between atoms: _101  and  _104
REMARK   42  A    between atoms: _104  and  _105
REMARK   43  A    between atoms: _105  and  _106
REMARK   44  A    between atoms: _109  and  _111
REMARK   45  A    between atoms: _111  and  _112
REMARK   46  A    between atoms: _111  and  _114
REMARK   47  A    between atoms: _117  and  _119
REMARK   48  A    between atoms: _119  and  _120
REMARK   49  A    between atoms: _122  and  _124
REMARK   50  A    between atoms: _124  and  _125
REMARK   51  A    between atoms: _124  and  _127
REMARK   52  A    between atoms: _130  and  _132
REMARK   53  A    between atoms: _132  and  _133
REMARK   54  A    between atoms: _132  and  _135
REMARK   55  A    between atoms: _135  and  _136
REMARK   56  A    between atoms: _142  and  _144
REMARK   57  A    between atoms: _144  and  _145
REMARK   58  A    between atoms: _144  and  _147
REMARK   59  A    between atoms: _150  and  _152
REMARK   60  A    between atoms: _152  and  _153
REMARK   61  A    between atoms: _152  and  _155
REMARK   62  A    between atoms: _155  and  _156
REMARK   63  A    between atoms: _161  and  _162
REMARK   64  A    between atoms: _164  and  _166
REMARK   65  A    between atoms: _166  and  _167
REMARK   66  A    between atoms: _166  and  _169
REMARK   67  A    between atoms: _169  and  _170
REMARK   68  A    between atoms: _170  and  _171
REMARK   69  A    between atoms: _173  and  _175
REMARK   70  A    between atoms: _175  and  _176
REMARK   71  A    between atoms: _175  and  _178
REMARK   72  A    between atoms: _178  and  _179
REMARK   73  A    between atoms: _179  and  _180
REMARK   74  A    between atoms: _183  and  _185
REMARK   75  A    between atoms: _185  and  _186
REMARK   76  A    between atoms: _185  and  _188
REMARK   77  A    between atoms: _188  and  _189
REMARK   78  A    between atoms: _189  and  _190
REMARK   79  A    between atoms: _193  and  _195
REMARK   80  A    between atoms: _195  and  _196
REMARK   81  A    between atoms: _195  and  _198
REMARK   82  A    between atoms: _198  and  _199
REMARK   83  A    between atoms: _204  and  _205
REMARK   84  A    between atoms: _207  and  _209
REMARK   85  A    between atoms: _209  and  _210
REMARK   86  A    between atoms: _209  and  _212
REMARK   87  A    between atoms: _212  and  _213
REMARK   88  A    between atoms: _213  and  _214
REMARK   89  A    between atoms: _214  and  _215
REMARK   90  A    between atoms: _224  and  _226
REMARK   91  A    between atoms: _226  and  _227
REMARK   92  A    between atoms: _226  and  _229
REMARK   93  A    between atoms: _229  and  _230
REMARK   94  A    between atoms: _230  and  _231
REMARK   95  A    between atoms: _234  and  _236
REMARK   96  A    between atoms: _236  and  _237
REMARK   97  A    between atoms: _236  and  _239
REMARK   98  A    between atoms: _239  and  _240
REMARK   99  A    between atoms: _243  and  _245
REMARK  100  A    between atoms: _245  and  _246
REMARK  101  A    between atoms: _245  and  _248
REMARK  102  A    between atoms: _248  and  _249
REMARK  103  A    between atoms: _249  and  _250
REMARK  104  A    between atoms: _255  and  _257
REMARK  105  A    between atoms: _257  and  _258
REMARK  106  A    between atoms: _257  and  _260
REMARK  107  A    between atoms: _260  and  _261
REMARK  108  A    between atoms: _261  and  _262
REMARK  109  A    between atoms: _262  and  _263
REMARK  110  A    between atoms: _263  and  _264
REMARK  111  A    between atoms: _268  and  _270
REMARK  112  A    between atoms: _270  and  _271
REMARK  113  A    between atoms: _274  and  _276
REMARK  114  A    between atoms: _276  and  _277
REMARK  115  A    between atoms: _279  and  _281
REMARK  116  A    between atoms: _281  and  _282
REMARK  117  A    between atoms: _281  and  _284
REMARK  118  A    between atoms: _284  and  _285
REMARK  119  A    between atoms: _290  and  _292
REMARK  120  A    between atoms: _292  and  _293
REMARK  121  A    between atoms: _292  and  _295
REMARK  122  A    between atoms: _295  and  _296
REMARK  123  A    between atoms: _296  and  _297
REMARK  124  A    between atoms: _300  and  _302
REMARK  125  A    between atoms: _302  and  _303
REMARK  126  A    between atoms: _302  and  _305
REMARK  127  A    between atoms: _305  and  _306
REMARK  128  A    between atoms: _306  and  _307
REMARK  129  A    between atoms: _312  and  _314
REMARK  130  A    between atoms: _314  and  _315
REMARK  131  A    between atoms: _314  and  _317
REMARK  132  A    between atoms: _317  and  _318
REMARK  133  A    between atoms: _320  and  _322
REMARK  134  A    between atoms: _322  and  _323
REMARK  135  A    between atoms: _322  and  _325
REMARK  136  A    between atoms: _325  and  _326
REMARK  137  A    between atoms: _332  and  _334
REMARK  138  A    between atoms: _334  and  _335
REMARK  139  A    between atoms: _334  and  _337
REMARK  140  A    between atoms: _340  and  _342
REMARK  141  A    between atoms: _342  and  _343
REMARK  142  A    between atoms: _342  and  _345
REMARK  143  A    between atoms: _345  and  _346
REMARK  144  A    between atoms: _349  and  _351
REMARK  145  A    between atoms: _351  and  _352
REMARK  146  A    between atoms: _351  and  _354
REMARK  147  A    between atoms: _354  and  _355
REMARK  148  A    between atoms: _358  and  _360
REMARK  149  A    between atoms: _360  and  _361
REMARK  150  A    between atoms: _360  and  _363
REMARK  151  A    between atoms: _363  and  _364
REMARK  152  A    between atoms: _367  and  _369
REMARK  153  A    between atoms: _369  and  _370
REMARK  154  A    between atoms: _369  and  _372
REMARK  155  A    between atoms: _372  and  _373
REMARK  156  A    between atoms: _376  and  _378
REMARK  157  A    between atoms: _378  and  _379
REMARK  158  A    between atoms: _378  and  _381
REMARK  159  A    between atoms: _381  and  _382
REMARK  160  A    between atoms: _387  and  _388
REMARK  161  A    between atoms: _390  and  _392
REMARK  162  A    between atoms: _392  and  _393
REMARK  163  A    between atoms: _392  and  _395
REMARK  164  A    between atoms: _395  and  _396
REMARK  165  A    between atoms: _401  and  _402
REMARK  166  A    between atoms: _404  and  _406
REMARK  167  A    between atoms: _406  and  _407
REMARK  168  A    between atoms: _406  and  _409
REMARK  169  A    between atoms: _409  and  _410
REMARK  170  A    between atoms: _413  and  _415
REMARK  171  A    between atoms: _415  and  _416
REMARK  172  A    between atoms: _415  and  _418
REMARK  173  A    between atoms: _418  and  _419
REMARK  174  A    between atoms: _422  and  _424
REMARK  175  A    between atoms: _424  and  _425
REMARK  176  A    between atoms: _424  and  _427
REMARK  177  A    between atoms: _427  and  _428
REMARK  178  A    between atoms: _428  and  _429
REMARK  179  A    between atoms: _434  and  _436
REMARK  180  A    between atoms: _436  and  _437
REMARK  181  A    between atoms: _436  and  _439
REMARK  182  A    between atoms: _442  and  _444
REMARK  183  A    between atoms: _444  and  _445
REMARK  184  A    between atoms: _444  and  _447
REMARK  185  A    between atoms: _447  and  _448
REMARK  186  A    between atoms: _451  and  _453
REMARK  187  A    between atoms: _453  and  _454
REMARK  188  A    between atoms: _453  and  _456
REMARK  189  A    between atoms: _456  and  _457
REMARK  190  A    between atoms: _459  and  _461
REMARK  191  A    between atoms: _461  and  _462
REMARK  192  A    between atoms: _464  and  _466
REMARK  193  A    between atoms: _466  and  _467
REMARK  194  A    between atoms: _466  and  _469
REMARK  195  A    between atoms: _469  and  _470
REMARK  196  A    between atoms: _470  and  _802
REMARK  197  A    between atoms: _471  and  _473
REMARK  198  A    between atoms: _473  and  _474
REMARK  199  A    between atoms: _473  and  _476
REMARK  200  A    between atoms: _476  and  _477
REMARK  201  A    between atoms: _482  and  _483
REMARK  202  A    between atoms: _485  and  _487
REMARK  203  A    between atoms: _487  and  _488
REMARK  204  A    between atoms: _487  and  _490
REMARK  205  A    between atoms: _490  and  _491
REMARK  206  A    between atoms: _491  and  _492
REMARK  207  A    between atoms: _497  and  _499
REMARK  208  A    between atoms: _499  and  _500
REMARK  209  A    between atoms: _499  and  _502
REMARK  210  A    between atoms: _502  and  _503
REMARK  211  A    between atoms: _503  and  _504
REMARK  212  A    between atoms: _509  and  _511
REMARK  213  A    between atoms: _511  and  _512
REMARK  214  A    between atoms: _511  and  _514
REMARK  215  A    between atoms: _514  and  _515
REMARK  216  A    between atoms: _520  and  _521
REMARK  217  A    between atoms: _523  and  _525
REMARK  218  A    between atoms: _525  and  _526
REMARK  219  A    between atoms: _529  and  _531
REMARK  220  A    between atoms: _531  and  _532
REMARK  221  A    between atoms: _531  and  _534
REMARK  222  A    between atoms: _534  and  _535
REMARK  223  A    between atoms: _540  and  _541
REMARK  224  A    between atoms: _543  and  _545
REMARK  225  A    between atoms: _545  and  _546
REMARK  226  A    between atoms: _545  and  _548
REMARK  227  A    between atoms: _548  and  _549
REMARK  228  A    between atoms: _552  and  _554
REMARK  229  A    between atoms: _554  and  _555
REMARK  230  A    between atoms: _554  and  _557
REMARK  231  A    between atoms: _559  and  _561
REMARK  232  A    between atoms: _561  and  _562
REMARK  233  A    between atoms: _561  and  _564
REMARK  234  A    between atoms: _564  and  _565
REMARK  235  A    between atoms: _568  and  _570
REMARK  236  A    between atoms: _570  and  _571
REMARK  237  A    between atoms: _570  and  _573
REMARK  238  A    between atoms: _573  and  _574
REMARK  239  A    between atoms: _579  and  _580
REMARK  240  A    between atoms: _582  and  _584
REMARK  241  A    between atoms: _584  and  _585
REMARK  242  A    between atoms: _584  and  _587
REMARK  243  A    between atoms: _587  and  _588
REMARK  244  A    between atoms: _591  and  _593
REMARK  245  A    between atoms: _593  and  _594
REMARK  246  A    between atoms: _593  and  _596
REMARK  247  A    between atoms: _596  and  _597
REMARK  248  A    between atoms: _607  and  _609
REMARK  249  A    between atoms: _609  and  _610
REMARK  250  A    between atoms: _613  and  _615
REMARK  251  A    between atoms: _615  and  _616
REMARK  252  A    between atoms: _619  and  _621
REMARK  253  A    between atoms: _621  and  _622
REMARK  254  A    between atoms: _621  and  _624
REMARK  255  A    between atoms: _624  and  _625
REMARK  256  A    between atoms: _628  and  _630
REMARK  257  A    between atoms: _630  and  _631
REMARK  258  A    between atoms: _630  and  _633
REMARK  259  A    between atoms: _633  and  _634
REMARK  260  A    between atoms: _637  and  _639
REMARK  261  A    between atoms: _639  and  _640
REMARK  262  A    between atoms: _639  and  _642
REMARK  263  A    between atoms: _642  and  _643
REMARK  264  A    between atoms: _646  and  _648
REMARK  265  A    between atoms: _648  and  _649
REMARK  266  A    between atoms: _648  and  _651
REMARK  267  A    between atoms: _651  and  _652
REMARK  268  A    between atoms: _652  and  _653
REMARK  269  A    between atoms: _653  and  _654
REMARK  270  A    between atoms: _654  and  _655
REMARK  271  A    between atoms: _659  and  _661
REMARK  272  A    between atoms: _661  and  _662
REMARK  273  A    between atoms: _661  and  _664
REMARK  274  A    between atoms: _664  and  _665
REMARK  275  A    between atoms: _670  and  _672
REMARK  276  A    between atoms: _672  and  _673
REMARK  277  A    between atoms: _672  and  _675
REMARK  278  A    between atoms: _675  and  _676
REMARK  279  A    between atoms: _676  and  _677
REMARK  280  A    between atoms: _677  and  _678
REMARK  281  A    between atoms: _678  and  _679
REMARK  282  A    between atoms: _683  and  _685
REMARK  283  A    between atoms: _685  and  _686
REMARK  284  A    between atoms: _685  and  _688
REMARK  285  A    between atoms: _688  and  _689
REMARK  286  A    between atoms: _699  and  _701
REMARK  287  A    between atoms: _701  and  _702
REMARK  288  A    between atoms: _701  and  _704
REMARK  289  A    between atoms: _704  and  _705
REMARK  290  A    between atoms: _705  and  _706
REMARK  291  A    between atoms: _711  and  _713
REMARK  292  A    between atoms: _713  and  _714
REMARK  293  A    between atoms: _717  and  _719
REMARK  294  A    between atoms: _719  and  _720
REMARK  295  A    between atoms: _722  and  _724
REMARK  296  A    between atoms: _724  and  _725
REMARK  297  A    between atoms: _724  and  _727
REMARK  298  A    between atoms: _727  and  _728
REMARK  299  A    between atoms: _728  and  _729
REMARK  300  A    between atoms: _732  and  _734
REMARK  301  A    between atoms: _734  and  _735
REMARK  302  A    between atoms: _738  and  _740
REMARK  303  A    between atoms: _740  and  _741
REMARK  304  A    between atoms: _740  and  _743
REMARK  305  A    between atoms: _743  and  _744
REMARK  306  A    between atoms: _744  and  _745
REMARK  307  A    between atoms: _745  and  _746
REMARK  308  A    between atoms: _755  and  _757
REMARK  309  A    between atoms: _757  and  _758
REMARK  310  A    between atoms: _757  and  _760
REMARK  311  A    between atoms: _760  and  _761
REMARK  312  A    between atoms: _764  and  _766
REMARK  313  A    between atoms: _766  and  _767
REMARK  314  A    between atoms: _766  and  _769
REMARK  315  A    between atoms: _769  and  _770
REMARK  316  A    between atoms: _775  and  _776
REMARK  317  A    between atoms: _778  and  _780
REMARK  318  A    between atoms: _780  and  _781
REMARK  319  A    between atoms: _780  and  _783
REMARK  320  A    between atoms: _783  and  _784
REMARK  321  A    between atoms: _787  and  _789
REMARK  322  A    between atoms: _789  and  _790
REMARK  323  A    between atoms: _789  and  _792
REMARK  324  A    between atoms: _792  and  _793
REMARK  325  A    between atoms: _796  and  _798
REMARK  326  A    between atoms: _798  and  _799
REMARK  327  A    between atoms: _798  and  _801
REMARK  328  A    between atoms: _801  and  _802
REMARK  329  A    between atoms: _803  and  _805
REMARK  330  A    between atoms: _805  and  _806
REMARK  331  A    between atoms: _805  and  _808
REMARK  332  A    between atoms: _811  and  _813
REMARK  333  A    between atoms: _813  and  _814
REMARK  334  A    between atoms: _813  and  _816
REMARK  335  A    between atoms: _816  and  _817
REMARK  336  A    between atoms: _817  and  _818
REMARK  337  A    between atoms: _821  and  _823
REMARK  338  A    between atoms: _823  and  _824
REMARK  339  A    between atoms: _823  and  _826
REMARK  340  A    between atoms: _826  and  _827
REMARK  341  A    between atoms: _837  and  _839
REMARK  342  A    between atoms: _839  and  _840
REMARK  343  A    between atoms: _839  and  _842
REMARK  344  A    between atoms: _842  and  _843
REMARK  345  A    between atoms: _846  and  _848
REMARK  346  A    between atoms: _848  and  _849
REMARK  347  A    between atoms: _848  and  _851
REMARK  348  A    between atoms: _851  and  _852
REMARK  349  A    between atoms: _852  and  _853
REMARK  350  A    between atoms: _853  and  _854
REMARK  351  A    between atoms: _863  and  _865
REMARK  352  A    between atoms: _865  and  _866
REMARK  353  A    between atoms: _865  and  _868
REMARK  354  A    between atoms: _868  and  _869
REMARK  355  A    between atoms: _874  and  _875
REMARK                            x       y       z     vdW  Elec       q    Type
REMARK                         _______ _______ _______ _____ _____    ______ ____
ROOT
ATOM      1  CA  VAL A   1      48.086  14.968   5.862  0.00  0.00    +0.133 C 
ENDROOT
BRANCH   1   2
ATOM      2  CB  VAL A   1      48.877  14.527   7.107  0.00  0.00    +0.023 C 
ATOM      3  CG2 VAL A   1      48.993  13.007   7.157  0.00  0.00    +0.002 C 
ATOM      4  CG1 VAL A   1      50.264  15.165   7.100  0.00  0.00    +0.002 C 
ENDBRANCH   1   2
BRANCH   1   5
ATOM      5  N   VAL A   1      47.810  16.400   5.832  0.00  0.00    -0.239 NA
ATOM      6  H   VAL A   1      47.473  16.870   6.697  0.00  0.00    +0.142 HD
ENDBRANCH   1   5
BRANCH   1   7
ATOM      7  C   VAL A   1      46.717  14.307   5.811  0.00  0.00    +0.224 C 
ATOM      8  O   VAL A   1      45.875  14.555   6.677  0.00  0.00    -0.287 OA
ENDBRANCH   1   7
TORSDOF 3
REMARK  Name = ../refined-set-2016/4pge/4pge_pocket.pdb
REMARK  355 active torsions:
REMARK  status: ('A' for Active; 'I' for Inactive)
REMARK    1  A    between atoms: _1  and  _3
REMARK    2  A    between atoms: _3  and  _4
REMARK    3  A    between atoms: _3  and  _6
REMARK    4  A    between atoms: _6  and  _7
REMARK    5  A    between atoms: _10  and  _12
REMARK    6  A    between atoms: _12  and  _13
REMARK    7  A    between atoms: _12  and  _15
REMARK    8  A    between atoms: _15  and  _16
REMARK    9  A    between atoms: _16  and  _17
REMARK   10  A    between atoms: _17  and  _18
REMARK   11  A    between atoms: _27  and  _29
REMARK   12  A    between atoms: _29  and  _30
REMARK   13  A    between atoms: _29  and  _32
REMARK   14  A    between atoms: _32  and  _33
REMARK   15  A    between atoms: _38  and  _39
REMARK   16  A    between atoms: _41  and  _43
REMARK   17  A    between atoms: _43  and  _44
REMARK   18  A    between atoms: _43  and  _46
REMARK   19  A    between atoms: _46  and  _47
REMARK   20  A    between atoms: _53  and  _55
REMARK   21  A    between atoms: _55  and  _56
REMARK   22  A    between atoms: _55  and  _58
REMARK   23  A    between atoms: _61  and  _63
REMARK   24  A    between atoms: _63  and  _64
REMARK   25  A    between atoms: _63  and  _66
REMARK   26  A    between atoms: _66  and  _67
REMARK   27  A    between atoms: _70  and  _72
REMARK   28  A    between atoms: _72  and  _73
REMARK   29  A    between atoms: _76  and  _78
REMARK   30  A    between atoms: _78  and  _79
REMARK   31  A    between atoms: _78  and  _81
REMARK   32  A    between atoms: _81  and  _82
REMARK   33  A    between atoms: _87  and  _88
REMARK   34  A    between atoms: _90  and  _92
REMARK   35  A    between atoms: _92  and  _93
REMARK   36  A    between atoms: _92  and  _95
REMARK   37  A    between atoms: _95  and  _96
REMARK   38  A    between atoms: _96  and  _97
REMARK   39  A    between atoms: _99  and  _101
REMARK   40  A    between atoms: _101  and  _102
REMARK   41  A    between atoms: _101  and  _104
REMARK   42  A    between atoms: _104  and  _105
REMARK   43  A    between atoms: _105  and  _106
REMARK   44  A    between atoms: _109  and  _111
REMARK   45  A    between atoms: _111  and  _112
REMARK   46  A    between atoms: _111  and  _114
REMARK   47  A    between atoms: _117  and  _119
REMARK   48  A    between atoms: _119  and  _120
REMARK   49  A    between atoms: _122  and  _124
REMARK   50  A    between atoms: _124  and  _125
REMARK   51  A    between atoms: _124  and  _127
REMARK   52  A    between atoms: _130  and  _132
REMARK   53  A    between atoms: _132  and  _133
REMARK   54  A    between atoms: _132  and  _135
REMARK   55  A    between atoms: _135  and  _136
REMARK   56  A    between atoms: _142  and  _144
REMARK   57  A    between atoms: _144  and  _145
REMARK   58  A    between atoms: _144  and  _147
REMARK   59  A    between atoms: _150  and  _152
REMARK   60  A    between atoms: _152  and  _153
REMARK   61  A    between atoms: _152  and  _155
REMARK   62  A    between atoms: _155  and  _156
REMARK   63  A    between atoms: _161  and  _162
REMARK   64  A    between atoms: _164  and  _166
REMARK   65  A    between atoms: _166  and  _167
REMARK   66  A    between atoms: _166  and  _169
REMARK   67  A    between atoms: _169  and  _170
REMARK   68  A    between atoms: _170  and  _171
REMARK   69  A    between atoms: _173  and  _175
REMARK   70  A    between atoms: _175  and  _176
REMARK   71  A    between atoms: _175  and  _178
REMARK   72  A    between atoms: _178  and  _179
REMARK   73  A    between atoms: _179  and  _180
REMARK   74  A    between atoms: _183  and  _185
REMARK   75  A    between atoms: _185  and  _186
REMARK   76  A    between atoms: _185  and  _188
REMARK   77  A    between atoms: _188  and  _189
REMARK   78  A    between atoms: _189  and  _190
REMARK   79  A    between atoms: _193  and  _195
REMARK   80  A    between atoms: _195  and  _196
REMARK   81  A    between atoms: _195  and  _198
REMARK   82  A    between atoms: _198  and  _199
REMARK   83  A    between atoms: _204  and  _205
REMARK   84  A    between atoms: _207  and  _209
REMARK   85  A    between atoms: _209  and  _210
REMARK   86  A    between atoms: _209  and  _212
REMARK   87  A    between atoms: _212  and  _213
REMARK   88  A    between atoms: _213  and  _214
REMARK   89  A    between atoms: _214  and  _215
REMARK   90  A    between atoms: _224  and  _226
REMARK   91  A    between atoms: _226  and  _227
REMARK   92  A    between atoms: _226  and  _229
REMARK   93  A    between atoms: _229  and  _230
REMARK   94  A    between atoms: _230  and  _231
REMARK   95  A    between atoms: _234  and  _236
REMARK   96  A    between atoms: _236  and  _237
REMARK   97  A    between atoms: _236  and  _239
REMARK   98  A    between atoms: _239  and  _240
REMARK   99  A    between atoms: _243  and  _245
REMARK  100  A    between atoms: _245  and  _246
REMARK  101  A    between atoms: _245  and  _248
REMARK  102  A    between atoms: _248  and  _249
REMARK  103  A    between atoms: _249  and  _250
REMARK  104  A    between atoms: _255  and  _257
REMARK  105  A    between atoms: _257  and  _258
REMARK  106  A    between atoms: _257  and  _260
REMARK  107  A    between atoms: _260  and  _261
REMARK  108  A    between atoms: _261  and  _262
REMARK  109  A    between atoms: _262  and  _263
REMARK  110  A    between atoms: _263  and  _264
REMARK  111  A    between atoms: _268  and  _270
REMARK  112  A    between atoms: _270  and  _271
REMARK  113  A    between atoms: _274  and  _276
REMARK  114  A    between atoms: _276  and  _277
REMARK  115  A    between atoms: _279  and  _281
REMARK  116  A    between atoms: _281  and  _282
REMARK  117  A    between atoms: _281  and  _284
REMARK  118  A    between atoms: _284  and  _285
REMARK  119  A    between atoms: _290  and  _292
REMARK  120  A    between atoms: _292  and  _293
REMARK  121  A    between atoms: _292  and  _295
REMARK  122  A    between atoms: _295  and  _296
REMARK  123  A    between atoms: _296  and  _297
REMARK  124  A    between atoms: _300  and  _302
REMARK  125  A    between atoms: _302  and  _303
REMARK  126  A    between atoms: _302  and  _305
REMARK  127  A    between atoms: _305  and  _306
REMARK  128  A    between atoms: _306  and  _307
REMARK  129  A    between atoms: _312  and  _314
REMARK  130  A    between atoms: _314  and  _315
REMARK  131  A    between atoms: _314  and  _317
REMARK  132  A    between atoms: _317  and  _318
REMARK  133  A    between atoms: _320  and  _322
REMARK  134  A    between atoms: _322  and  _323
REMARK  135  A    between atoms: _322  and  _325
REMARK  136  A    between atoms: _325  and  _326
REMARK  137  A    between atoms: _332  and  _334
REMARK  138  A    between atoms: _334  and  _335
REMARK  139  A    between atoms: _334  and  _337
REMARK  140  A    between atoms: _340  and  _342
REMARK  141  A    between atoms: _342  and  _343
REMARK  142  A    between atoms: _342  and  _345
REMARK  143  A    between atoms: _345  and  _346
REMARK  144  A    between atoms: _349  and  _351
REMARK  145  A    between atoms: _351  and  _352
REMARK  146  A    between atoms: _351  and  _354
REMARK  147  A    between atoms: _354  and  _355
REMARK  148  A    between atoms: _358  and  _360
REMARK  149  A    between atoms: _360  and  _361
REMARK  150  A    between atoms: _360  and  _363
REMARK  151  A    between atoms: _363  and  _364
REMARK  152  A    between atoms: _367  and  _369
REMARK  153  A    between atoms: _369  and  _370
REMARK  154  A    between atoms: _369  and  _372
REMARK  155  A    between atoms: _372  and  _373
REMARK  156  A    between atoms: _376  and  _378
REMARK  157  A    between atoms: _378  and  _379
REMARK  158  A    between atoms: _378  and  _381
REMARK  159  A    between atoms: _381  and  _382
REMARK  160  A    between atoms: _387  and  _388
REMARK  161  A    between atoms: _390  and  _392
REMARK  162  A    between atoms: _392  and  _393
REMARK  163  A    between atoms: _392  and  _395
REMARK  164  A    between atoms: _395  and  _396
REMARK  165  A    between atoms: _401  and  _402
REMARK  166  A    between atoms: _404  and  _406
REMARK  167  A    between atoms: _406  and  _407
REMARK  168  A    between atoms: _406  and  _409
REMARK  169  A    between atoms: _409  and  _410
REMARK  170  A    between atoms: _413  and  _415
REMARK  171  A    between atoms: _415  and  _416
REMARK  172  A    between atoms: _415  and  _418
REMARK  173  A    between atoms: _418  and  _419
REMARK  174  A    between atoms: _422  and  _424
REMARK  175  A    between atoms: _424  and  _425
REMARK  176  A    between atoms: _424  and  _427
REMARK  177  A    between atoms: _427  and  _428
REMARK  178  A    between atoms: _428  and  _429
REMARK  179  A    between atoms: _434  and  _436
REMARK  180  A    between atoms: _436  and  _437
REMARK  181  A    between atoms: _436  and  _439
REMARK  182  A    between atoms: _442  and  _444
REMARK  183  A    between atoms: _444  and  _445
REMARK  184  A    between atoms: _444  and  _447
REMARK  185  A    between atoms: _447  and  _448
REMARK  186  A    between atoms: _451  and  _453
REMARK  187  A    between atoms: _453  and  _454
REMARK  188  A    between atoms: _453  and  _456
REMARK  189  A    between atoms: _456  and  _457
REMARK  190  A    between atoms: _459  and  _461
REMARK  191  A    between atoms: _461  and  _462
REMARK  192  A    between atoms: _464  and  _466
REMARK  193  A    between atoms: _466  and  _467
REMARK  194  A    between atoms: _466  and  _469
REMARK  195  A    between atoms: _469  and  _470
REMARK  196  A    between atoms: _470  and  _802
REMARK  197  A    between atoms: _471  and  _473
REMARK  198  A    between atoms: _473  and  _474
REMARK  199  A    between atoms: _473  and  _476
REMARK  200  A    between atoms: _476  and  _477
REMARK  201  A    between atoms: _482  and  _483
REMARK  202  A    between atoms: _485  and  _487
REMARK  203  A    between atoms: _487  and  _488
REMARK  204  A    between atoms: _487  and  _490
REMARK  205  A    between atoms: _490  and  _491
REMARK  206  A    between atoms: _491  and  _492
REMARK  207  A    between atoms: _497  and  _499
REMARK  208  A    between atoms: _499  and  _500
REMARK  209  A    between atoms: _499  and  _502
REMARK  210  A    between atoms: _502  and  _503
REMARK  211  A    between atoms: _503  and  _504
REMARK  212  A    between atoms: _509  and  _511
REMARK  213  A    between atoms: _511  and  _512
REMARK  214  A    between atoms: _511  and  _514
REMARK  215  A    between atoms: _514  and  _515
REMARK  216  A    between atoms: _520  and  _521
REMARK  217  A    between atoms: _523  and  _525
REMARK  218  A    between atoms: _525  and  _526
REMARK  219  A    between atoms: _529  and  _531
REMARK  220  A    between atoms: _531  and  _532
REMARK  221  A    between atoms: _531  and  _534
REMARK  222  A    between atoms: _534  and  _535
REMARK  223  A    between atoms: _540  and  _541
REMARK  224  A    between atoms: _543  and  _545
REMARK  225  A    between atoms: _545  and  _546
REMARK  226  A    between atoms: _545  and  _548
REMARK  227  A    between atoms: _548  and  _549
REMARK  228  A    between atoms: _552  and  _554
REMARK  229  A    between atoms: _554  and  _555
REMARK  230  A    between atoms: _554  and  _557
REMARK  231  A    between atoms: _559  and  _561
REMARK  232  A    between atoms: _561  and  _562
REMARK  233  A    between atoms: _561  and  _564
REMARK  234  A    between atoms: _564  and  _565
REMARK  235  A    between atoms: _568  and  _570
REMARK  236  A    between atoms: _570  and  _571
REMARK  237  A    between atoms: _570  and  _573
REMARK  238  A    between atoms: _573  and  _574
REMARK  239  A    between atoms: _579  and  _580
REMARK  240  A    between atoms: _582  and  _584
REMARK  241  A    between atoms: _584  and  _585
REMARK  242  A    between atoms: _584  and  _587
REMARK  243  A    between atoms: _587  and  _588
REMARK  244  A    between atoms: _591  and  _593
REMARK  245  A    between atoms: _593  and  _594
REMARK  246  A    between atoms: _593  and  _596
REMARK  247  A    between atoms: _596  and  _597
REMARK  248  A    between atoms: _607  and  _609
REMARK  249  A    between atoms: _609  and  _610
REMARK  250  A    between atoms: _613  and  _615
REMARK  251  A    between atoms: _615  and  _616
REMARK  252  A    between atoms: _619  and  _621
REMARK  253  A    between atoms: _621  and  _622
REMARK  254  A    between atoms: _621  and  _624
REMARK  255  A    between atoms: _624  and  _625
REMARK  256  A    between atoms: _628  and  _630
REMARK  257  A    between atoms: _630  and  _631
REMARK  258  A    between atoms: _630  and  _633
REMARK  259  A    between atoms: _633  and  _634
REMARK  260  A    between atoms: _637  and  _639
REMARK  261  A    between atoms: _639  and  _640
REMARK  262  A    between atoms: _639  and  _642
REMARK  263  A    between atoms: _642  and  _643
REMARK  264  A    between atoms: _646  and  _648
REMARK  265  A    between atoms: _648  and  _649
REMARK  266  A    between atoms: _648  and  _651
REMARK  267  A    between atoms: _651  and  _652
REMARK  268  A    between atoms: _652  and  _653
REMARK  269  A    between atoms: _653  and  _654
REMARK  270  A    between atoms: _654  and  _655
REMARK  271  A    between atoms: _659  and  _661
REMARK  272  A    between atoms: _661  and  _662
REMARK  273  A    between atoms: _661  and  _664
REMARK  274  A    between atoms: _664  and  _665
REMARK  275  A    between atoms: _670  and  _672
REMARK  276  A    between atoms: _672  and  _673
REMARK  277  A    between atoms: _672  and  _675
REMARK  278  A    between atoms: _675  and  _676
REMARK  279  A    between atoms: _676  and  _677
REMARK  280  A    between atoms: _677  and  _678
REMARK  281  A    between atoms: _678  and  _679
REMARK  282  A    between atoms: _683  and  _685
REMARK  283  A    between atoms: _685  and  _686
REMARK  284  A    between atoms: _685  and  _688
REMARK  285  A    between atoms: _688  and  _689
REMARK  286  A    between atoms: _699  and  _701
REMARK  287  A    between atoms: _701  and  _702
REMARK  288  A    between atoms: _701  and  _704
REMARK  289  A    between atoms: _704  and  _705
REMARK  290  A    between atoms: _705  and  _706
REMARK  291  A    between atoms: _711  and  _713
REMARK  292  A    between atoms: _713  and  _714
REMARK  293  A    between atoms: _717  and  _719
REMARK  294  A    between atoms: _719  and  _720
REMARK  295  A    between atoms: _722  and  _724
REMARK  296  A    between atoms: _724  and  _725
REMARK  297  A    between atoms: _724  and  _727
REMARK  298  A    between atoms: _727  and  _728
REMARK  299  A    between atoms: _728  and  _729
REMARK  300  A    between atoms: _732  and  _734
REMARK  301  A    between atoms: _734  and  _735
REMARK  302  A    between atoms: _738  and  _740
REMARK  303  A    between atoms: _740  and  _741
REMARK  304  A    between atoms: _740  and  _743
REMARK  305  A    between atoms: _743  and  _744
REMARK  306  A    between atoms: _744  and  _745
REMARK  307  A    between atoms: _745  and  _746
REMARK  308  A    between atoms: _755  and  _757
REMARK  309  A    between atoms: _757  and  _758
REMARK  310  A    between atoms: _757  and  _760
REMARK  311  A    between atoms: _760  and  _761
REMARK  312  A    between atoms: _764  and  _766
REMARK  313  A    between atoms: _766  and  _767
REMARK  314  A    between atoms: _766  and  _769
REMARK  315  A    between atoms: _769  and  _770
REMARK  316  A    between atoms: _775  and  _776
REMARK  317  A    between atoms: _778  and  _780
REMARK  318  A    between atoms: _780  and  _781
REMARK  319  A    between atoms: _780  and  _783
REMARK  320  A    between atoms: _783  and  _784
REMARK  321  A    between atoms: _787  and  _789
REMARK  322  A    between atoms: _789  and  _790
REMARK  323  A    between atoms: _789  and  _792
REMARK  324  A    between atoms: _792  and  _793
REMARK  325  A    between atoms: _796  and  _798
REMARK  326  A    between atoms: _798  and  _799
REMARK  327  A    between atoms: _798  and  _801
REMARK  328  A    between atoms: _801  and  _802
REMARK  329  A    between atoms: _803  and  _805
REMARK  330  A    between atoms: _805  and  _806
REMARK  331  A    between atoms: _805  and  _808
REMARK  332  A    between atoms: _811  and  _813
REMARK  333  A    between atoms: _813  and  _814
REMARK  334  A    between atoms: _813  and  _816
REMARK  335  A    between atoms: _816  and  _817
REMARK  336  A    between atoms: _817  and  _818
REMARK  337  A    between atoms: _821  and  _823
REMARK  338  A    between atoms: _823  and  _824
REMARK  339  A    between atoms: _823  and  _826
REMARK  340  A    between atoms: _826  and  _827
REMARK  341  A    between atoms: _837  and  _839
REMARK  342  A    between atoms: _839  and  _840
REMARK  343  A    between atoms: _839  and  _842
REMARK  344  A    between atoms: _842  and  _843
REMARK  345  A    between atoms: _846  and  _848
REMARK  346  A    between atoms: _848  and  _849
REMARK  347  A    between atoms: _848  and  _851
REMARK  348  A    between atoms: _851  and  _852
REMARK  349  A    between atoms: _852  and  _853
REMARK  350  A    between atoms: _853  and  _854
REMARK  351  A    between atoms: _863  and  _865
REMARK  352  A    between atoms: _865  and  _866
REMARK  353  A    between atoms: _865  and  _868
REMARK  354  A    between atoms: _868  and  _869
REMARK  355  A    between atoms: _874  and  _875
REMARK                            x       y       z     vdW  Elec       q    Type
REMARK                         _______ _______ _______ _____ _____    ______ ____
ROOT
ATOM      1  CA  PHE A   1      48.351  20.369   9.708  0.00  0.00    +0.149 C 
ENDROOT
BRANCH   1   2
ATOM      2  C   PHE A   1      49.367  21.511   9.777  0.00  0.00    +0.239 C 
ATOM      3  O   PHE A   1      49.976  21.711  10.828  0.00  0.00    -0.274 OA
ATOM      4  N   VAL A   2      49.531  22.264   8.689  0.00  0.00    -0.298 N 
ATOM      5  H   VAL A   2      49.064  21.972   7.807  0.00  0.00    +0.150 HD
BRANCH   4   6
ATOM      6  CA  VAL A   2      50.339  23.482   8.683  0.00  0.00    +0.137 C 
BRANCH   6   7
ATOM      7  CB  VAL A   2      51.782  23.225   8.187  0.00  0.00    +0.026 C 
ATOM      8  CG2 VAL A   2      52.544  22.336   9.150  0.00  0.00    +0.002 C 
ATOM      9  CG1 VAL A   2      51.789  22.621   6.778  0.00  0.00    +0.002 C 
ENDBRANCH   6   7
BRANCH   6  10
ATOM     10  C   VAL A   2      49.744  24.536   7.760  0.00  0.00    +0.227 C 
ATOM     11  O   VAL A   2      49.010  24.204   6.826  0.00  0.00    -0.286 OA
ENDBRANCH   6  10
ENDBRANCH   4   6
ENDBRANCH   1   2
BRANCH   1  12
ATOM     12  N   PHE A   1      47.314  20.509   8.682  0.00  0.00    -0.238 NA
ATOM     13  H   PHE A   1      47.583  20.730   7.702  0.00  0.00    +0.142 HD
ENDBRANCH   1  12
BRANCH   1  14
ATOM     14  CB  PHE A   1      49.041  18.987   9.609  0.00  0.00    +0.053 C 
BRANCH  14  15
ATOM     15  CG  PHE A   1      50.162  18.919   8.612  0.00  0.00    -0.020 A 
ATOM     16  CD2 PHE A   1      51.479  18.789   9.039  0.00  0.00    -0.004 A 
ATOM     17  CE2 PHE A   1      52.523  18.723   8.126  0.00  0.00    -0.000 A 
ATOM     18  CZ  PHE A   1      52.253  18.765   6.763  0.00  0.00    -0.000 A 
ATOM     19  CE1 PHE A   1      50.945  18.877   6.323  0.00  0.00    -0.000 A 
ATOM     20  CD1 PHE A   1      49.906  18.946   7.243  0.00  0.00    -0.004 A 
ENDBRANCH  14  15
ENDBRANCH   1  14
TORSDOF 7
REMARK  Name = ../refined-set-2016/4pge/4pge_pocket.pdb
REMARK  355 active torsions:
REMARK  status: ('A' for Active; 'I' for Inactive)
REMARK    1  A    between atoms: _1  and  _3
REMARK    2  A    between atoms: _3  and  _4
REMARK    3  A    between atoms: _3  and  _6
REMARK    4  A    between atoms: _6  and  _7
REMARK    5  A    between atoms: _10  and  _12
REMARK    6  A    between atoms: _12  and  _13
REMARK    7  A    between atoms: _12  and  _15
REMARK    8  A    between atoms: _15  and  _16
REMARK    9  A    between atoms: _16  and  _17
REMARK   10  A    between atoms: _17  and  _18
REMARK   11  A    between atoms: _27  and  _29
REMARK   12  A    between atoms: _29  and  _30
REMARK   13  A    between atoms: _29  and  _32
REMARK   14  A    between atoms: _32  and  _33
REMARK   15  A    between atoms: _38  and  _39
REMARK   16  A    between atoms: _41  and  _43
REMARK   17  A    between atoms: _43  and  _44
REMARK   18  A    between atoms: _43  and  _46
REMARK   19  A    between atoms: _46  and  _47
REMARK   20  A    between atoms: _53  and  _55
REMARK   21  A    between atoms: _55  and  _56
REMARK   22  A    between atoms: _55  and  _58
REMARK   23  A    between atoms: _61  and  _63
REMARK   24  A    between atoms: _63  and  _64
REMARK   25  A    between atoms: _63  and  _66
REMARK   26  A    between atoms: _66  and  _67
REMARK   27  A    between atoms: _70  and  _72
REMARK   28  A    between atoms: _72  and  _73
REMARK   29  A    between atoms: _76  and  _78
REMARK   30  A    between atoms: _78  and  _79
REMARK   31  A    between atoms: _78  and  _81
REMARK   32  A    between atoms: _81  and  _82
REMARK   33  A    between atoms: _87  and  _88
REMARK   34  A    between atoms: _90  and  _92
REMARK   35  A    between atoms: _92  and  _93
REMARK   36  A    between atoms: _92  and  _95
REMARK   37  A    between atoms: _95  and  _96
REMARK   38  A    between atoms: _96  and  _97
REMARK   39  A    between atoms: _99  and  _101
REMARK   40  A    between atoms: _101  and  _102
REMARK   41  A    between atoms: _101  and  _104
REMARK   42  A    between atoms: _104  and  _105
REMARK   43  A    between atoms: _105  and  _106
REMARK   44  A    between atoms: _109  and  _111
REMARK   45  A    between atoms: _111  and  _112
REMARK   46  A    between atoms: _111  and  _114
REMARK   47  A    between atoms: _117  and  _119
REMARK   48  A    between atoms: _119  and  _120
REMARK   49  A    between atoms: _122  and  _124
REMARK   50  A    between atoms: _124  and  _125
REMARK   51  A    between atoms: _124  and  _127
REMARK   52  A    between atoms: _130  and  _132
REMARK   53  A    between atoms: _132  and  _133
REMARK   54  A    between atoms: _132  and  _135
REMARK   55  A    between atoms: _135  and  _136
REMARK   56  A    between atoms: _142  and  _144
REMARK   57  A    between atoms: _144  and  _145
REMARK   58  A    between atoms: _144  and  _147
REMARK   59  A    between atoms: _150  and  _152
REMARK   60  A    between atoms: _152  and  _153
REMARK   61  A    between atoms: _152  and  _155
REMARK   62  A    between atoms: _155  and  _156
REMARK   63  A    between atoms: _161  and  _162
REMARK   64  A    between atoms: _164  and  _166
REMARK   65  A    between atoms: _166  and  _167
REMARK   66  A    between atoms: _166  and  _169
REMARK   67  A    between atoms: _169  and  _170
REMARK   68  A    between atoms: _170  and  _171
REMARK   69  A    between atoms: _173  and  _175
REMARK   70  A    between atoms: _175  and  _176
REMARK   71  A    between atoms: _175  and  _178
REMARK   72  A    between atoms: _178  and  _179
REMARK   73  A    between atoms: _179  and  _180
REMARK   74  A    between atoms: _183  and  _185
REMARK   75  A    between atoms: _185  and  _186
REMARK   76  A    between atoms: _185  and  _188
REMARK   77  A    between atoms: _188  and  _189
REMARK   78  A    between atoms: _189  and  _190
REMARK   79  A    between atoms: _193  and  _195
REMARK   80  A    between atoms: _195  and  _196
REMARK   81  A    between atoms: _195  and  _198
REMARK   82  A    between atoms: _198  and  _199
REMARK   83  A    between atoms: _204  and  _205
REMARK   84  A    between atoms: _207  and  _209
REMARK   85  A    between atoms: _209  and  _210
REMARK   86  A    between atoms: _209  and  _212
REMARK   87  A    between atoms: _212  and  _213
REMARK   88  A    between atoms: _213  and  _214
REMARK   89  A    between atoms: _214  and  _215
REMARK   90  A    between atoms: _224  and  _226
REMARK   91  A    between atoms: _226  and  _227
REMARK   92  A    between atoms: _226  and  _229
REMARK   93  A    between atoms: _229  and  _230
REMARK   94  A    between atoms: _230  and  _231
REMARK   95  A    between atoms: _234  and  _236
REMARK   96  A    between atoms: _236  and  _237
REMARK   97  A    between atoms: _236  and  _239
REMARK   98  A    between atoms: _239  and  _240
REMARK   99  A    between atoms: _243  and  _245
REMARK  100  A    between atoms: _245  and  _246
REMARK  101  A    between atoms: _245  and  _248
REMARK  102  A    between atoms: _248  and  _249
REMARK  103  A    between atoms: _249  and  _250
REMARK  104  A    between atoms: _255  and  _257
REMARK  105  A    between atoms: _257  and  _258
REMARK  106  A    between atoms: _257  and  _260
REMARK  107  A    between atoms: _260  and  _261
REMARK  108  A    between atoms: _261  and  _262
REMARK  109  A    between atoms: _262  and  _263
REMARK  110  A    between atoms: _263  and  _264
REMARK  111  A    between atoms: _268  and  _270
REMARK  112  A    between atoms: _270  and  _271
REMARK  113  A    between atoms: _274  and  _276
REMARK  114  A    between atoms: _276  and  _277
REMARK  115  A    between atoms: _279  and  _281
REMARK  116  A    between atoms: _281  and  _282
REMARK  117  A    between atoms: _281  and  _284
REMARK  118  A    between atoms: _284  and  _285
REMARK  119  A    between atoms: _290  and  _292
REMARK  120  A    between atoms: _292  and  _293
REMARK  121  A    between atoms: _292  and  _295
REMARK  122  A    between atoms: _295  and  _296
REMARK  123  A    between atoms: _296  and  _297
REMARK  124  A    between atoms: _300  and  _302
REMARK  125  A    between atoms: _302  and  _303
REMARK  126  A    between atoms: _302  and  _305
REMARK  127  A    between atoms: _305  and  _306
REMARK  128  A    between atoms: _306  and  _307
REMARK  129  A    between atoms: _312  and  _314
REMARK  130  A    between atoms: _314  and  _315
REMARK  131  A    between atoms: _314  and  _317
REMARK  132  A    between atoms: _317  and  _318
REMARK  133  A    between atoms: _320  and  _322
REMARK  134  A    between atoms: _322  and  _323
REMARK  135  A    between atoms: _322  and  _325
REMARK  136  A    between atoms: _325  and  _326
REMARK  137  A    between atoms: _332  and  _334
REMARK  138  A    between atoms: _334  and  _335
REMARK  139  A    between atoms: _334  and  _337
REMARK  140  A    between atoms: _340  and  _342
REMARK  141  A    between atoms: _342  and  _343
REMARK  142  A    between atoms: _342  and  _345
REMARK  143  A    between atoms: _345  and  _346
REMARK  144  A    between atoms: _349  and  _351
REMARK  145  A    between atoms: _351  and  _352
REMARK  146  A    between atoms: _351  and  _354
REMARK  147  A    between atoms: _354  and  _355
REMARK  148  A    between atoms: _358  and  _360
REMARK  149  A    between atoms: _360  and  _361
REMARK  150  A    between atoms: _360  and  _363
REMARK  151  A    between atoms: _363  and  _364
REMARK  152  A    between atoms: _367  and  _369
REMARK  153  A    between atoms: _369  and  _370
REMARK  154  A    between atoms: _369  and  _372
REMARK  155  A    between atoms: _372  and  _373
REMARK  156  A    between atoms: _376  and  _378
REMARK  157  A    between atoms: _378  and  _379
REMARK  158  A    between atoms: _378  and  _381
REMARK  159  A    between atoms: _381  and  _382
REMARK  160  A    between atoms: _387  and  _388
REMARK  161  A    between atoms: _390  and  _392
REMARK  162  A    between atoms: _392  and  _393
REMARK  163  A    between atoms: _392  and  _395
REMARK  164  A    between atoms: _395  and  _396
REMARK  165  A    between atoms: _401  and  _402
REMARK  166  A    between atoms: _404  and  _406
REMARK  167  A    between atoms: _406  and  _407
REMARK  168  A    between atoms: _406  and  _409
REMARK  169  A    between atoms: _409  and  _410
REMARK  170  A    between atoms: _413  and  _415
REMARK  171  A    between atoms: _415  and  _416
REMARK  172  A    between atoms: _415  and  _418
REMARK  173  A    between atoms: _418  and  _419
REMARK  174  A    between atoms: _422  and  _424
REMARK  175  A    between atoms: _424  and  _425
REMARK  176  A    between atoms: _424  and  _427
REMARK  177  A    between atoms: _427  and  _428
REMARK  178  A    between atoms: _428  and  _429
REMARK  179  A    between atoms: _434  and  _436
REMARK  180  A    between atoms: _436  and  _437
REMARK  181  A    between atoms: _436  and  _439
REMARK  182  A    between atoms: _442  and  _444
REMARK  183  A    between atoms: _444  and  _445
REMARK  184  A    between atoms: _444  and  _447
REMARK  185  A    between atoms: _447  and  _448
REMARK  186  A    between atoms: _451  and  _453
REMARK  187  A    between atoms: _453  and  _454
REMARK  188  A    between atoms: _453  and  _456
REMARK  189  A    between atoms: _456  and  _457
REMARK  190  A    between atoms: _459  and  _461
REMARK  191  A    between atoms: _461  and  _462
REMARK  192  A    between atoms: _464  and  _466
REMARK  193  A    between atoms: _466  and  _467
REMARK  194  A    between atoms: _466  and  _469
REMARK  195  A    between atoms: _469  and  _470
REMARK  196  A    between atoms: _470  and  _802
REMARK  197  A    between atoms: _471  and  _473
REMARK  198  A    between atoms: _473  and  _474
REMARK  199  A    between atoms: _473  and  _476
REMARK  200  A    between atoms: _476  and  _477
REMARK  201  A    between atoms: _482  and  _483
REMARK  202  A    between atoms: _485  and  _487
REMARK  203  A    between atoms: _487  and  _488
REMARK  204  A    between atoms: _487  and  _490
REMARK  205  A    between atoms: _490  and  _491
REMARK  206  A    between atoms: _491  and  _492
REMARK  207  A    between atoms: _497  and  _499
REMARK  208  A    between atoms: _499  and  _500
REMARK  209  A    between atoms: _499  and  _502
REMARK  210  A    between atoms: _502  and  _503
REMARK  211  A    between atoms: _503  and  _504
REMARK  212  A    between atoms: _509  and  _511
REMARK  213  A    between atoms: _511  and  _512
REMARK  214  A    between atoms: _511  and  _514
REMARK  215  A    between atoms: _514  and  _515
REMARK  216  A    between atoms: _520  and  _521
REMARK  217  A    between atoms: _523  and  _525
REMARK  218  A    between atoms: _525  and  _526
REMARK  219  A    between atoms: _529  and  _531
REMARK  220  A    between atoms: _531  and  _532
REMARK  221  A    between atoms: _531  and  _534
REMARK  222  A    between atoms: _534  and  _535
REMARK  223  A    between atoms: _540  and  _541
REMARK  224  A    between atoms: _543  and  _545
REMARK  225  A    between atoms: _545  and  _546
REMARK  226  A    between atoms: _545  and  _548
REMARK  227  A    between atoms: _548  and  _549
REMARK  228  A    between atoms: _552  and  _554
REMARK  229  A    between atoms: _554  and  _555
REMARK  230  A    between atoms: _554  and  _557
REMARK  231  A    between atoms: _559  and  _561
REMARK  232  A    between atoms: _561  and  _562
REMARK  233  A    between atoms: _561  and  _564
REMARK  234  A    between atoms: _564  and  _565
REMARK  235  A    between atoms: _568  and  _570
REMARK  236  A    between atoms: _570  and  _571
REMARK  237  A    between atoms: _570  and  _573
REMARK  238  A    between atoms: _573  and  _574
REMARK  239  A    between atoms: _579  and  _580
REMARK  240  A    between atoms: _582  and  _584
REMARK  241  A    between atoms: _584  and  _585
REMARK  242  A    between atoms: _584  and  _587
REMARK  243  A    between atoms: _587  and  _588
REMARK  244  A    between atoms: _591  and  _593
REMARK  245  A    between atoms: _593  and  _594
REMARK  246  A    between atoms: _593  and  _596
REMARK  247  A    between atoms: _596  and  _597
REMARK  248  A    between atoms: _607  and  _609
REMARK  249  A    between atoms: _609  and  _610
REMARK  250  A    between atoms: _613  and  _615
REMARK  251  A    between atoms: _615  and  _616
REMARK  252  A    between atoms: _619  and  _621
REMARK  253  A    between atoms: _621  and  _622
REMARK  254  A    between atoms: _621  and  _624
REMARK  255  A    between atoms: _624  and  _625
REMARK  256  A    between atoms: _628  and  _630
REMARK  257  A    between atoms: _630  and  _631
REMARK  258  A    between atoms: _630  and  _633
REMARK  259  A    between atoms: _633  and  _634
REMARK  260  A    between atoms: _637  and  _639
REMARK  261  A    between atoms: _639  and  _640
REMARK  262  A    between atoms: _639  and  _642
REMARK  263  A    between atoms: _642  and  _643
REMARK  264  A    between atoms: _646  and  _648
REMARK  265  A    between atoms: _648  and  _649
REMARK  266  A    between atoms: _648  and  _651
REMARK  267  A    between atoms: _651  and  _652
REMARK  268  A    between atoms: _652  and  _653
REMARK  269  A    between atoms: _653  and  _654
REMARK  270  A    between atoms: _654  and  _655
REMARK  271  A    between atoms: _659  and  _661
REMARK  272  A    between atoms: _661  and  _662
REMARK  273  A    between atoms: _661  and  _664
REMARK  274  A    between atoms: _664  and  _665
REMARK  275  A    between atoms: _670  and  _672
REMARK  276  A    between atoms: _672  and  _673
REMARK  277  A    between atoms: _672  and  _675
REMARK  278  A    between atoms: _675  and  _676
REMARK  279  A    between atoms: _676  and  _677
REMARK  280  A    between atoms: _677  and  _678
REMARK  281  A    between atoms: _678  and  _679
REMARK  282  A    between atoms: _683  and  _685
REMARK  283  A    between atoms: _685  and  _686
REMARK  284  A    between atoms: _685  and  _688
REMARK  285  A    between atoms: _688  and  _689
REMARK  286  A    between atoms: _699  and  _701
REMARK  287  A    between atoms: _701  and  _702
REMARK  288  A    between atoms: _701  and  _704
REMARK  289  A    between atoms: _704  and  _705
REMARK  290  A    between atoms: _705  and  _706
REMARK  291  A    between atoms: _711  and  _713
REMARK  292  A    between atoms: _713  and  _714
REMARK  293  A    between atoms: _717  and  _719
REMARK  294  A    between atoms: _719  and  _720
REMARK  295  A    between atoms: _722  and  _724
REMARK  296  A    between atoms: _724  and  _725
REMARK  297  A    between atoms: _724  and  _727
REMARK  298  A    between atoms: _727  and  _728
REMARK  299  A    between atoms: _728  and  _729
REMARK  300  A    between atoms: _732  and  _734
REMARK  301  A    between atoms: _734  and  _735
REMARK  302  A    between atoms: _738  and  _740
REMARK  303  A    between atoms: _740  and  _741
REMARK  304  A    between atoms: _740  and  _743
REMARK  305  A    between atoms: _743  and  _744
REMARK  306  A    between atoms: _744  and  _745
REMARK  307  A    between atoms: _745  and  _746
REMARK  308  A    between atoms: _755  and  _757
REMARK  309  A    between atoms: _757  and  _758
REMARK  310  A    between atoms: _757  and  _760
REMARK  311  A    between atoms: _760  and  _761
REMARK  312  A    between atoms: _764  and  _766
REMARK  313  A    between atoms: _766  and  _767
REMARK  314  A    between atoms: _766  and  _769
REMARK  315  A    between atoms: _769  and  _770
REMARK  316  A    between atoms: _775  and  _776
REMARK  317  A    between atoms: _778  and  _780
REMARK  318  A    between atoms: _780  and  _781
REMARK  319  A    between atoms: _780  and  _783
REMARK  320  A    between atoms: _783  and  _784
REMARK  321  A    between atoms: _787  and  _789
REMARK  322  A    between atoms: _789  and  _790
REMARK  323  A    between atoms: _789  and  _792
REMARK  324  A    between atoms: _792  and  _793
REMARK  325  A    between atoms: _796  and  _798
REMARK  326  A    between atoms: _798  and  _799
REMARK  327  A    between atoms: _798  and  _801
REMARK  328  A    between atoms: _801  and  _802
REMARK  329  A    between atoms: _803  and  _805
REMARK  330  A    between atoms: _805  and  _806
REMARK  331  A    between atoms: _805  and  _808
REMARK  332  A    between atoms: _811  and  _813
REMARK  333  A    between atoms: _813  and  _814
REMARK  334  A    between atoms: _813  and  _816
REMARK  335  A    between atoms: _816  and  _817
REMARK  336  A    between atoms: _817  and  _818
REMARK  337  A    between atoms: _821  and  _823
REMARK  338  A    between atoms: _823  and  _824
REMARK  339  A    between atoms: _823  and  _826
REMARK  340  A    between atoms: _826  and  _827
REMARK  341  A    between atoms: _837  and  _839
REMARK  342  A    between atoms: _839  and  _840
REMARK  343  A    between atoms: _839  and  _842
REMARK  344  A    between atoms: _842  and  _843
REMARK  345  A    between atoms: _846  and  _848
REMARK  346  A    between atoms: _848  and  _849
REMARK  347  A    between atoms: _848  and  _851
REMARK  348  A    between atoms: _851  and  _852
REMARK  349  A    between atoms: _852  and  _853
REMARK  350  A    between atoms: _853  and  _854
REMARK  351  A    between atoms: _863  and  _865
REMARK  352  A    between atoms: _865  and  _866
REMARK  353  A    between atoms: _865  and  _868
REMARK  354  A    between atoms: _868  and  _869
REMARK  355  A    between atoms: _874  and  _875
REMARK                            x       y       z     vdW  Elec       q    Type
REMARK                         _______ _______ _______ _____ _____    ______ ____
ROOT
ATOM      1  CG  TYR A   1      55.016  27.199   7.143  0.00  0.00    -0.020 A 
ATOM      2  CD2 TYR A   1      54.072  26.186   7.223  0.00  0.00    -0.001 A 
ATOM      3  CE2 TYR A   1      53.604  25.553   6.082  0.00  0.00    +0.036 A 
ATOM      4  CZ  TYR A   1      54.072  25.943   4.841  0.00  0.00    +0.134 A 
ATOM      5  CE1 TYR A   1      55.000  26.952   4.739  0.00  0.00    +0.036 A 
ATOM      6  CD1 TYR A   1      55.464  27.573   5.886  0.00  0.00    -0.001 A 
ENDROOT
BRANCH   4   7
ATOM      7  OH  TYR A   1      53.603  25.326   3.709  0.00  0.00    -0.506 OA
ATOM      8  HH  TYR A   1      53.166  25.996   3.126  0.00  0.00    +0.292 HD
ENDBRANCH   4   7
BRANCH   1   9
ATOM      9  CB  TYR A   1      55.533  27.886   8.387  0.00  0.00    +0.051 C 
BRANCH   9  10
ATOM     10  CA  TYR A   1      54.547  28.886   8.994  0.00  0.00    +0.137 C 
BRANCH  10  11
ATOM     11  N   TYR A   1      55.145  30.210   9.135  0.00  0.00    -0.239 NA
ATOM     12  H   TYR A   1      56.172  30.328   9.023  0.00  0.00    +0.142 HD
ENDBRANCH  10  11
BRANCH  10  13
ATOM     13  C   TYR A   1      54.142  28.467  10.404  0.00  0.00    +0.224 C 
ATOM     14  O   TYR A   1      54.932  28.623  11.337  0.00  0.00    -0.287 OA
ENDBRANCH  10  13
ENDBRANCH   9  10
ENDBRANCH   1   9
TORSDOF 5
REMARK  Name = ../refined-set-2016/4pge/4pge_pocket.pdb
REMARK  355 active torsions:
REMARK  status: ('A' for Active; 'I' for Inactive)
REMARK    1  A    between atoms: _1  and  _3
REMARK    2  A    between atoms: _3  and  _4
REMARK    3  A    between atoms: _3  and  _6
REMARK    4  A    between atoms: _6  and  _7
REMARK    5  A    between atoms: _10  and  _12
REMARK    6  A    between atoms: _12  and  _13
REMARK    7  A    between atoms: _12  and  _15
REMARK    8  A    between atoms: _15  and  _16
REMARK    9  A    between atoms: _16  and  _17
REMARK   10  A    between atoms: _17  and  _18
REMARK   11  A    between atoms: _27  and  _29
REMARK   12  A    between atoms: _29  and  _30
REMARK   13  A    between atoms: _29  and  _32
REMARK   14  A    between atoms: _32  and  _33
REMARK   15  A    between atoms: _38  and  _39
REMARK   16  A    between atoms: _41  and  _43
REMARK   17  A    between atoms: _43  and  _44
REMARK   18  A    between atoms: _43  and  _46
REMARK   19  A    between atoms: _46  and  _47
REMARK   20  A    between atoms: _53  and  _55
REMARK   21  A    between atoms: _55  and  _56
REMARK   22  A    between atoms: _55  and  _58
REMARK   23  A    between atoms: _61  and  _63
REMARK   24  A    between atoms: _63  and  _64
REMARK   25  A    between atoms: _63  and  _66
REMARK   26  A    between atoms: _66  and  _67
REMARK   27  A    between atoms: _70  and  _72
REMARK   28  A    between atoms: _72  and  _73
REMARK   29  A    between atoms: _76  and  _78
REMARK   30  A    between atoms: _78  and  _79
REMARK   31  A    between atoms: _78  and  _81
REMARK   32  A    between atoms: _81  and  _82
REMARK   33  A    between atoms: _87  and  _88
REMARK   34  A    between atoms: _90  and  _92
REMARK   35  A    between atoms: _92  and  _93
REMARK   36  A    between atoms: _92  and  _95
REMARK   37  A    between atoms: _95  and  _96
REMARK   38  A    between atoms: _96  and  _97
REMARK   39  A    between atoms: _99  and  _101
REMARK   40  A    between atoms: _101  and  _102
REMARK   41  A    between atoms: _101  and  _104
REMARK   42  A    between atoms: _104  and  _105
REMARK   43  A    between atoms: _105  and  _106
REMARK   44  A    between atoms: _109  and  _111
REMARK   45  A    between atoms: _111  and  _112
REMARK   46  A    between atoms: _111  and  _114
REMARK   47  A    between atoms: _117  and  _119
REMARK   48  A    between atoms: _119  and  _120
REMARK   49  A    between atoms: _122  and  _124
REMARK   50  A    between atoms: _124  and  _125
REMARK   51  A    between atoms: _124  and  _127
REMARK   52  A    between atoms: _130  and  _132
REMARK   53  A    between atoms: _132  and  _133
REMARK   54  A    between atoms: _132  and  _135
REMARK   55  A    between atoms: _135  and  _136
REMARK   56  A    between atoms: _142  and  _144
REMARK   57  A    between atoms: _144  and  _145
REMARK   58  A    between atoms: _144  and  _147
REMARK   59  A    between atoms: _150  and  _152
REMARK   60  A    between atoms: _152  and  _153
REMARK   61  A    between atoms: _152  and  _155
REMARK   62  A    between atoms: _155  and  _156
REMARK   63  A    between atoms: _161  and  _162
REMARK   64  A    between atoms: _164  and  _166
REMARK   65  A    between atoms: _166  and  _167
REMARK   66  A    between atoms: _166  and  _169
REMARK   67  A    between atoms: _169  and  _170
REMARK   68  A    between atoms: _170  and  _171
REMARK   69  A    between atoms: _173  and  _175
REMARK   70  A    between atoms: _175  and  _176
REMARK   71  A    between atoms: _175  and  _178
REMARK   72  A    between atoms: _178  and  _179
REMARK   73  A    between atoms: _179  and  _180
REMARK   74  A    between atoms: _183  and  _185
REMARK   75  A    between atoms: _185  and  _186
REMARK   76  A    between atoms: _185  and  _188
REMARK   77  A    between atoms: _188  and  _189
REMARK   78  A    between atoms: _189  and  _190
REMARK   79  A    between atoms: _193  and  _195
REMARK   80  A    between atoms: _195  and  _196
REMARK   81  A    between atoms: _195  and  _198
REMARK   82  A    between atoms: _198  and  _199
REMARK   83  A    between atoms: _204  and  _205
REMARK   84  A    between atoms: _207  and  _209
REMARK   85  A    between atoms: _209  and  _210
REMARK   86  A    between atoms: _209  and  _212
REMARK   87  A    between atoms: _212  and  _213
REMARK   88  A    between atoms: _213  and  _214
REMARK   89  A    between atoms: _214  and  _215
REMARK   90  A    between atoms: _224  and  _226
REMARK   91  A    between atoms: _226  and  _227
REMARK   92  A    between atoms: _226  and  _229
REMARK   93  A    between atoms: _229  and  _230
REMARK   94  A    between atoms: _230  and  _231
REMARK   95  A    between atoms: _234  and  _236
REMARK   96  A    between atoms: _236  and  _237
REMARK   97  A    between atoms: _236  and  _239
REMARK   98  A    between atoms: _239  and  _240
REMARK   99  A    between atoms: _243  and  _245
REMARK  100  A    between atoms: _245  and  _246
REMARK  101  A    between atoms: _245  and  _248
REMARK  102  A    between atoms: _248  and  _249
REMARK  103  A    between atoms: _249  and  _250
REMARK  104  A    between atoms: _255  and  _257
REMARK  105  A    between atoms: _257  and  _258
REMARK  106  A    between atoms: _257  and  _260
REMARK  107  A    between atoms: _260  and  _261
REMARK  108  A    between atoms: _261  and  _262
REMARK  109  A    between atoms: _262  and  _263
REMARK  110  A    between atoms: _263  and  _264
REMARK  111  A    between atoms: _268  and  _270
REMARK  112  A    between atoms: _270  and  _271
REMARK  113  A    between atoms: _274  and  _276
REMARK  114  A    between atoms: _276  and  _277
REMARK  115  A    between atoms: _279  and  _281
REMARK  116  A    between atoms: _281  and  _282
REMARK  117  A    between atoms: _281  and  _284
REMARK  118  A    between atoms: _284  and  _285
REMARK  119  A    between atoms: _290  and  _292
REMARK  120  A    between atoms: _292  and  _293
REMARK  121  A    between atoms: _292  and  _295
REMARK  122  A    between atoms: _295  and  _296
REMARK  123  A    between atoms: _296  and  _297
REMARK  124  A    between atoms: _300  and  _302
REMARK  125  A    between atoms: _302  and  _303
REMARK  126  A    between atoms: _302  and  _305
REMARK  127  A    between atoms: _305  and  _306
REMARK  128  A    between atoms: _306  and  _307
REMARK  129  A    between atoms: _312  and  _314
REMARK  130  A    between atoms: _314  and  _315
REMARK  131  A    between atoms: _314  and  _317
REMARK  132  A    between atoms: _317  and  _318
REMARK  133  A    between atoms: _320  and  _322
REMARK  134  A    between atoms: _322  and  _323
REMARK  135  A    between atoms: _322  and  _325
REMARK  136  A    between atoms: _325  and  _326
REMARK  137  A    between atoms: _332  and  _334
REMARK  138  A    between atoms: _334  and  _335
REMARK  139  A    between atoms: _334  and  _337
REMARK  140  A    between atoms: _340  and  _342
REMARK  141  A    between atoms: _342  and  _343
REMARK  142  A    between atoms: _342  and  _345
REMARK  143  A    between atoms: _345  and  _346
REMARK  144  A    between atoms: _349  and  _351
REMARK  145  A    between atoms: _351  and  _352
REMARK  146  A    between atoms: _351  and  _354
REMARK  147  A    between atoms: _354  and  _355
REMARK  148  A    between atoms: _358  and  _360
REMARK  149  A    between atoms: _360  and  _361
REMARK  150  A    between atoms: _360  and  _363
REMARK  151  A    between atoms: _363  and  _364
REMARK  152  A    between atoms: _367  and  _369
REMARK  153  A    between atoms: _369  and  _370
REMARK  154  A    between atoms: _369  and  _372
REMARK  155  A    between atoms: _372  and  _373
REMARK  156  A    between atoms: _376  and  _378
REMARK  157  A    between atoms: _378  and  _379
REMARK  158  A    between atoms: _378  and  _381
REMARK  159  A    between atoms: _381  and  _382
REMARK  160  A    between atoms: _387  and  _388
REMARK  161  A    between atoms: _390  and  _392
REMARK  162  A    between atoms: _392  and  _393
REMARK  163  A    between atoms: _392  and  _395
REMARK  164  A    between atoms: _395  and  _396
REMARK  165  A    between atoms: _401  and  _402
REMARK  166  A    between atoms: _404  and  _406
REMARK  167  A    between atoms: _406  and  _407
REMARK  168  A    between atoms: _406  and  _409
REMARK  169  A    between atoms: _409  and  _410
REMARK  170  A    between atoms: _413  and  _415
REMARK  171  A    between atoms: _415  and  _416
REMARK  172  A    between atoms: _415  and  _418
REMARK  173  A    between atoms: _418  and  _419
REMARK  174  A    between atoms: _422  and  _424
REMARK  175  A    between atoms: _424  and  _425
REMARK  176  A    between atoms: _424  and  _427
REMARK  177  A    between atoms: _427  and  _428
REMARK  178  A    between atoms: _428  and  _429
REMARK  179  A    between atoms: _434  and  _436
REMARK  180  A    between atoms: _436  and  _437
REMARK  181  A    between atoms: _436  and  _439
REMARK  182  A    between atoms: _442  and  _444
REMARK  183  A    between atoms: _444  and  _445
REMARK  184  A    between atoms: _444  and  _447
REMARK  185  A    between atoms: _447  and  _448
REMARK  186  A    between atoms: _451  and  _453
REMARK  187  A    between atoms: _453  and  _454
REMARK  188  A    between atoms: _453  and  _456
REMARK  189  A    between atoms: _456  and  _457
REMARK  190  A    between atoms: _459  and  _461
REMARK  191  A    between atoms: _461  and  _462
REMARK  192  A    between atoms: _464  and  _466
REMARK  193  A    between atoms: _466  and  _467
REMARK  194  A    between atoms: _466  and  _469
REMARK  195  A    between atoms: _469  and  _470
REMARK  196  A    between atoms: _470  and  _802
REMARK  197  A    between atoms: _471  and  _473
REMARK  198  A    between atoms: _473  and  _474
REMARK  199  A    between atoms: _473  and  _476
REMARK  200  A    between atoms: _476  and  _477
REMARK  201  A    between atoms: _482  and  _483
REMARK  202  A    between atoms: _485  and  _487
REMARK  203  A    between atoms: _487  and  _488
REMARK  204  A    between atoms: _487  and  _490
REMARK  205  A    between atoms: _490  and  _491
REMARK  206  A    between atoms: _491  and  _492
REMARK  207  A    between atoms: _497  and  _499
REMARK  208  A    between atoms: _499  and  _500
REMARK  209  A    between atoms: _499  and  _502
REMARK  210  A    between atoms: _502  and  _503
REMARK  211  A    between atoms: _503  and  _504
REMARK  212  A    between atoms: _509  and  _511
REMARK  213  A    between atoms: _511  and  _512
REMARK  214  A    between atoms: _511  and  _514
REMARK  215  A    between atoms: _514  and  _515
REMARK  216  A    between atoms: _520  and  _521
REMARK  217  A    between atoms: _523  and  _525
REMARK  218  A    between atoms: _525  and  _526
REMARK  219  A    between atoms: _529  and  _531
REMARK  220  A    between atoms: _531  and  _532
REMARK  221  A    between atoms: _531  and  _534
REMARK  222  A    between atoms: _534  and  _535
REMARK  223  A    between atoms: _540  and  _541
REMARK  224  A    between atoms: _543  and  _545
REMARK  225  A    between atoms: _545  and  _546
REMARK  226  A    between atoms: _545  and  _548
REMARK  227  A    between atoms: _548  and  _549
REMARK  228  A    between atoms: _552  and  _554
REMARK  229  A    between atoms: _554  and  _555
REMARK  230  A    between atoms: _554  and  _557
REMARK  231  A    between atoms: _559  and  _561
REMARK  232  A    between atoms: _561  and  _562
REMARK  233  A    between atoms: _561  and  _564
REMARK  234  A    between atoms: _564  and  _565
REMARK  235  A    between atoms: _568  and  _570
REMARK  236  A    between atoms: _570  and  _571
REMARK  237  A    between atoms: _570  and  _573
REMARK  238  A    between atoms: _573  and  _574
REMARK  239  A    between atoms: _579  and  _580
REMARK  240  A    between atoms: _582  and  _584
REMARK  241  A    between atoms: _584  and  _585
REMARK  242  A    between atoms: _584  and  _587
REMARK  243  A    between atoms: _587  and  _588
REMARK  244  A    between atoms: _591  and  _593
REMARK  245  A    between atoms: _593  and  _594
REMARK  246  A    between atoms: _593  and  _596
REMARK  247  A    between atoms: _596  and  _597
REMARK  248  A    between atoms: _607  and  _609
REMARK  249  A    between atoms: _609  and  _610
REMARK  250  A    between atoms: _613  and  _615
REMARK  251  A    between atoms: _615  and  _616
REMARK  252  A    between atoms: _619  and  _621
REMARK  253  A    between atoms: _621  and  _622
REMARK  254  A    between atoms: _621  and  _624
REMARK  255  A    between atoms: _624  and  _625
REMARK  256  A    between atoms: _628  and  _630
REMARK  257  A    between atoms: _630  and  _631
REMARK  258  A    between atoms: _630  and  _633
REMARK  259  A    between atoms: _633  and  _634
REMARK  260  A    between atoms: _637  and  _639
REMARK  261  A    between atoms: _639  and  _640
REMARK  262  A    between atoms: _639  and  _642
REMARK  263  A    between atoms: _642  and  _643
REMARK  264  A    between atoms: _646  and  _648
REMARK  265  A    between atoms: _648  and  _649
REMARK  266  A    between atoms: _648  and  _651
REMARK  267  A    between atoms: _651  and  _652
REMARK  268  A    between atoms: _652  and  _653
REMARK  269  A    between atoms: _653  and  _654
REMARK  270  A    between atoms: _654  and  _655
REMARK  271  A    between atoms: _659  and  _661
REMARK  272  A    between atoms: _661  and  _662
REMARK  273  A    between atoms: _661  and  _664
REMARK  274  A    between atoms: _664  and  _665
REMARK  275  A    between atoms: _670  and  _672
REMARK  276  A    between atoms: _672  and  _673
REMARK  277  A    between atoms: _672  and  _675
REMARK  278  A    between atoms: _675  and  _676
REMARK  279  A    between atoms: _676  and  _677
REMARK  280  A    between atoms: _677  and  _678
REMARK  281  A    between atoms: _678  and  _679
REMARK  282  A    between atoms: _683  and  _685
REMARK  283  A    between atoms: _685  and  _686
REMARK  284  A    between atoms: _685  and  _688
REMARK  285  A    between atoms: _688  and  _689
REMARK  286  A    between atoms: _699  and  _701
REMARK  287  A    between atoms: _701  and  _702
REMARK  288  A    between atoms: _701  and  _704
REMARK  289  A    between atoms: _704  and  _705
REMARK  290  A    between atoms: _705  and  _706
REMARK  291  A    between atoms: _711  and  _713
REMARK  292  A    between atoms: _713  and  _714
REMARK  293  A    between atoms: _717  and  _719
REMARK  294  A    between atoms: _719  and  _720
REMARK  295  A    between atoms: _722  and  _724
REMARK  296  A    between atoms: _724  and  _725
REMARK  297  A    between atoms: _724  and  _727
REMARK  298  A    between atoms: _727  and  _728
REMARK  299  A    between atoms: _728  and  _729
REMARK  300  A    between atoms: _732  and  _734
REMARK  301  A    between atoms: _734  and  _735
REMARK  302  A    between atoms: _738  and  _740
REMARK  303  A    between atoms: _740  and  _741
REMARK  304  A    between atoms: _740  and  _743
REMARK  305  A    between atoms: _743  and  _744
REMARK  306  A    between atoms: _744  and  _745
REMARK  307  A    between atoms: _745  and  _746
REMARK  308  A    between atoms: _755  and  _757
REMARK  309  A    between atoms: _757  and  _758
REMARK  310  A    between atoms: _757  and  _760
REMARK  311  A    between atoms: _760  and  _761
REMARK  312  A    between atoms: _764  and  _766
REMARK  313  A    between atoms: _766  and  _767
REMARK  314  A    between atoms: _766  and  _769
REMARK  315  A    between atoms: _769  and  _770
REMARK  316  A    between atoms: _775  and  _776
REMARK  317  A    between atoms: _778  and  _780
REMARK  318  A    between atoms: _780  and  _781
REMARK  319  A    between atoms: _780  and  _783
REMARK  320  A    between atoms: _783  and  _784
REMARK  321  A    between atoms: _787  and  _789
REMARK  322  A    between atoms: _789  and  _790
REMARK  323  A    between atoms: _789  and  _792
REMARK  324  A    between atoms: _792  and  _793
REMARK  325  A    between atoms: _796  and  _798
REMARK  326  A    between atoms: _798  and  _799
REMARK  327  A    between atoms: _798  and  _801
REMARK  328  A    between atoms: _801  and  _802
REMARK  329  A    between atoms: _803  and  _805
REMARK  330  A    between atoms: _805  and  _806
REMARK  331  A    between atoms: _805  and  _808
REMARK  332  A    between atoms: _811  and  _813
REMARK  333  A    between atoms: _813  and  _814
REMARK  334  A    between atoms: _813  and  _816
REMARK  335  A    between atoms: _816  and  _817
REMARK  336  A    between atoms: _817  and  _818
REMARK  337  A    between atoms: _821  and  _823
REMARK  338  A    between atoms: _823  and  _824
REMARK  339  A    between atoms: _823  and  _826
REMARK  340  A    between atoms: _826  and  _827
REMARK  341  A    between atoms: _837  and  _839
REMARK  342  A    between atoms: _839  and  _840
REMARK  343  A    between atoms: _839  and  _842
REMARK  344  A    between atoms: _842  and  _843
REMARK  345  A    between atoms: _846  and  _848
REMARK  346  A    between atoms: _848  and  _849
REMARK  347  A    between atoms: _848  and  _851
REMARK  348  A    between atoms: _851  and  _852
REMARK  349  A    between atoms: _852  and  _853
REMARK  350  A    between atoms: _853  and  _854
REMARK  351  A    between atoms: _863  and  _865
REMARK  352  A    between atoms: _865  and  _866
REMARK  353  A    between atoms: _865  and  _868
REMARK  354  A    between atoms: _868  and  _869
REMARK  355  A    between atoms: _874  and  _875
REMARK                            x       y       z     vdW  Elec       q    Type
REMARK                         _______ _______ _______ _____ _____    ______ ____
ROOT
ATOM      1  CA  MET A   1      53.023  19.136  15.028  0.00  0.00    +0.134 C 
ENDROOT
BRANCH   1   2
ATOM      2  N   MET A   1      51.895  18.399  15.603  0.00  0.00    -0.239 NA
ATOM      3  H   MET A   1      50.926  18.756  15.479  0.00  0.00    +0.142 HD
ENDBRANCH   1   2
BRANCH   1   4
ATOM      4  C   MET A   1      53.843  19.883  16.078  0.00  0.00    +0.224 C 
ATOM      5  O   MET A   1      54.898  20.428  15.762  0.00  0.00    -0.287 OA
ENDBRANCH   1   4
BRANCH   1   6
ATOM      6  CB  MET A   1      52.561  20.074  13.910  0.00  0.00    +0.037 C 
BRANCH   6   7
ATOM      7  CG  MET A   1      52.231  19.345  12.616  0.00  0.00    +0.059 C 
BRANCH   7   8
ATOM      8  SD  MET A   1      53.635  18.441  11.920  0.00  0.00    -0.139 S 
ATOM      9  CE  MET A   1      54.655  19.795  11.332  0.00  0.00    +0.069 C 
ENDBRANCH   7   8
ENDBRANCH   6   7
ENDBRANCH   1   6
TORSDOF 5
REMARK  Name = ../refined-set-2016/4pge/4pge_pocket.pdb
REMARK  355 active torsions:
REMARK  status: ('A' for Active; 'I' for Inactive)
REMARK    1  A    between atoms: _1  and  _3
REMARK    2  A    between atoms: _3  and  _4
REMARK    3  A    between atoms: _3  and  _6
REMARK    4  A    between atoms: _6  and  _7
REMARK    5  A    between atoms: _10  and  _12
REMARK    6  A    between atoms: _12  and  _13
REMARK    7  A    between atoms: _12  and  _15
REMARK    8  A    between atoms: _15  and  _16
REMARK    9  A    between atoms: _16  and  _17
REMARK   10  A    between atoms: _17  and  _18
REMARK   11  A    between atoms: _27  and  _29
REMARK   12  A    between atoms: _29  and  _30
REMARK   13  A    between atoms: _29  and  _32
REMARK   14  A    between atoms: _32  and  _33
REMARK   15  A    between atoms: _38  and  _39
REMARK   16  A    between atoms: _41  and  _43
REMARK   17  A    between atoms: _43  and  _44
REMARK   18  A    between atoms: _43  and  _46
REMARK   19  A    between atoms: _46  and  _47
REMARK   20  A    between atoms: _53  and  _55
REMARK   21  A    between atoms: _55  and  _56
REMARK   22  A    between atoms: _55  and  _58
REMARK   23  A    between atoms: _61  and  _63
REMARK   24  A    between atoms: _63  and  _64
REMARK   25  A    between atoms: _63  and  _66
REMARK   26  A    between atoms: _66  and  _67
REMARK   27  A    between atoms: _70  and  _72
REMARK   28  A    between atoms: _72  and  _73
REMARK   29  A    between atoms: _76  and  _78
REMARK   30  A    between atoms: _78  and  _79
REMARK   31  A    between atoms: _78  and  _81
REMARK   32  A    between atoms: _81  and  _82
REMARK   33  A    between atoms: _87  and  _88
REMARK   34  A    between atoms: _90  and  _92
REMARK   35  A    between atoms: _92  and  _93
REMARK   36  A    between atoms: _92  and  _95
REMARK   37  A    between atoms: _95  and  _96
REMARK   38  A    between atoms: _96  and  _97
REMARK   39  A    between atoms: _99  and  _101
REMARK   40  A    between atoms: _101  and  _102
REMARK   41  A    between atoms: _101  and  _104
REMARK   42  A    between atoms: _104  and  _105
REMARK   43  A    between atoms: _105  and  _106
REMARK   44  A    between atoms: _109  and  _111
REMARK   45  A    between atoms: _111  and  _112
REMARK   46  A    between atoms: _111  and  _114
REMARK   47  A    between atoms: _117  and  _119
REMARK   48  A    between atoms: _119  and  _120
REMARK   49  A    between atoms: _122  and  _124
REMARK   50  A    between atoms: _124  and  _125
REMARK   51  A    between atoms: _124  and  _127
REMARK   52  A    between atoms: _130  and  _132
REMARK   53  A    between atoms: _132  and  _133
REMARK   54  A    between atoms: _132  and  _135
REMARK   55  A    between atoms: _135  and  _136
REMARK   56  A    between atoms: _142  and  _144
REMARK   57  A    between atoms: _144  and  _145
REMARK   58  A    between atoms: _144  and  _147
REMARK   59  A    between atoms: _150  and  _152
REMARK   60  A    between atoms: _152  and  _153
REMARK   61  A    between atoms: _152  and  _155
REMARK   62  A    between atoms: _155  and  _156
REMARK   63  A    between atoms: _161  and  _162
REMARK   64  A    between atoms: _164  and  _166
REMARK   65  A    between atoms: _166  and  _167
REMARK   66  A    between atoms: _166  and  _169
REMARK   67  A    between atoms: _169  and  _170
REMARK   68  A    between atoms: _170  and  _171
REMARK   69  A    between atoms: _173  and  _175
REMARK   70  A    between atoms: _175  and  _176
REMARK   71  A    between atoms: _175  and  _178
REMARK   72  A    between atoms: _178  and  _179
REMARK   73  A    between atoms: _179  and  _180
REMARK   74  A    between atoms: _183  and  _185
REMARK   75  A    between atoms: _185  and  _186
REMARK   76  A    between atoms: _185  and  _188
REMARK   77  A    between atoms: _188  and  _189
REMARK   78  A    between atoms: _189  and  _190
REMARK   79  A    between atoms: _193  and  _195
REMARK   80  A    between atoms: _195  and  _196
REMARK   81  A    between atoms: _195  and  _198
REMARK   82  A    between atoms: _198  and  _199
REMARK   83  A    between atoms: _204  and  _205
REMARK   84  A    between atoms: _207  and  _209
REMARK   85  A    between atoms: _209  and  _210
REMARK   86  A    between atoms: _209  and  _212
REMARK   87  A    between atoms: _212  and  _213
REMARK   88  A    between atoms: _213  and  _214
REMARK   89  A    between atoms: _214  and  _215
REMARK   90  A    between atoms: _224  and  _226
REMARK   91  A    between atoms: _226  and  _227
REMARK   92  A    between atoms: _226  and  _229
REMARK   93  A    between atoms: _229  and  _230
REMARK   94  A    between atoms: _230  and  _231
REMARK   95  A    between atoms: _234  and  _236
REMARK   96  A    between atoms: _236  and  _237
REMARK   97  A    between atoms: _236  and  _239
REMARK   98  A    between atoms: _239  and  _240
REMARK   99  A    between atoms: _243  and  _245
REMARK  100  A    between atoms: _245  and  _246
REMARK  101  A    between atoms: _245  and  _248
REMARK  102  A    between atoms: _248  and  _249
REMARK  103  A    between atoms: _249  and  _250
REMARK  104  A    between atoms: _255  and  _257
REMARK  105  A    between atoms: _257  and  _258
REMARK  106  A    between atoms: _257  and  _260
REMARK  107  A    between atoms: _260  and  _261
REMARK  108  A    between atoms: _261  and  _262
REMARK  109  A    between atoms: _262  and  _263
REMARK  110  A    between atoms: _263  and  _264
REMARK  111  A    between atoms: _268  and  _270
REMARK  112  A    between atoms: _270  and  _271
REMARK  113  A    between atoms: _274  and  _276
REMARK  114  A    between atoms: _276  and  _277
REMARK  115  A    between atoms: _279  and  _281
REMARK  116  A    between atoms: _281  and  _282
REMARK  117  A    between atoms: _281  and  _284
REMARK  118  A    between atoms: _284  and  _285
REMARK  119  A    between atoms: _290  and  _292
REMARK  120  A    between atoms: _292  and  _293
REMARK  121  A    between atoms: _292  and  _295
REMARK  122  A    between atoms: _295  and  _296
REMARK  123  A    between atoms: _296  and  _297
REMARK  124  A    between atoms: _300  and  _302
REMARK  125  A    between atoms: _302  and  _303
REMARK  126  A    between atoms: _302  and  _305
REMARK  127  A    between atoms: _305  and  _306
REMARK  128  A    between atoms: _306  and  _307
REMARK  129  A    between atoms: _312  and  _314
REMARK  130  A    between atoms: _314  and  _315
REMARK  131  A    between atoms: _314  and  _317
REMARK  132  A    between atoms: _317  and  _318
REMARK  133  A    between atoms: _320  and  _322
REMARK  134  A    between atoms: _322  and  _323
REMARK  135  A    between atoms: _322  and  _325
REMARK  136  A    between atoms: _325  and  _326
REMARK  137  A    between atoms: _332  and  _334
REMARK  138  A    between atoms: _334  and  _335
REMARK  139  A    between atoms: _334  and  _337
REMARK  140  A    between atoms: _340  and  _342
REMARK  141  A    between atoms: _342  and  _343
REMARK  142  A    between atoms: _342  and  _345
REMARK  143  A    between atoms: _345  and  _346
REMARK  144  A    between atoms: _349  and  _351
REMARK  145  A    between atoms: _351  and  _352
REMARK  146  A    between atoms: _351  and  _354
REMARK  147  A    between atoms: _354  and  _355
REMARK  148  A    between atoms: _358  and  _360
REMARK  149  A    between atoms: _360  and  _361
REMARK  150  A    between atoms: _360  and  _363
REMARK  151  A    between atoms: _363  and  _364
REMARK  152  A    between atoms: _367  and  _369
REMARK  153  A    between atoms: _369  and  _370
REMARK  154  A    between atoms: _369  and  _372
REMARK  155  A    between atoms: _372  and  _373
REMARK  156  A    between atoms: _376  and  _378
REMARK  157  A    between atoms: _378  and  _379
REMARK  158  A    between atoms: _378  and  _381
REMARK  159  A    between atoms: _381  and  _382
REMARK  160  A    between atoms: _387  and  _388
REMARK  161  A    between atoms: _390  and  _392
REMARK  162  A    between atoms: _392  and  _393
REMARK  163  A    between atoms: _392  and  _395
REMARK  164  A    between atoms: _395  and  _396
REMARK  165  A    between atoms: _401  and  _402
REMARK  166  A    between atoms: _404  and  _406
REMARK  167  A    between atoms: _406  and  _407
REMARK  168  A    between atoms: _406  and  _409
REMARK  169  A    between atoms: _409  and  _410
REMARK  170  A    between atoms: _413  and  _415
REMARK  171  A    between atoms: _415  and  _416
REMARK  172  A    between atoms: _415  and  _418
REMARK  173  A    between atoms: _418  and  _419
REMARK  174  A    between atoms: _422  and  _424
REMARK  175  A    between atoms: _424  and  _425
REMARK  176  A    between atoms: _424  and  _427
REMARK  177  A    between atoms: _427  and  _428
REMARK  178  A    between atoms: _428  and  _429
REMARK  179  A    between atoms: _434  and  _436
REMARK  180  A    between atoms: _436  and  _437
REMARK  181  A    between atoms: _436  and  _439
REMARK  182  A    between atoms: _442  and  _444
REMARK  183  A    between atoms: _444  and  _445
REMARK  184  A    between atoms: _444  and  _447
REMARK  185  A    between atoms: _447  and  _448
REMARK  186  A    between atoms: _451  and  _453
REMARK  187  A    between atoms: _453  and  _454
REMARK  188  A    between atoms: _453  and  _456
REMARK  189  A    between atoms: _456  and  _457
REMARK  190  A    between atoms: _459  and  _461
REMARK  191  A    between atoms: _461  and  _462
REMARK  192  A    between atoms: _464  and  _466
REMARK  193  A    between atoms: _466  and  _467
REMARK  194  A    between atoms: _466  and  _469
REMARK  195  A    between atoms: _469  and  _470
REMARK  196  A    between atoms: _470  and  _802
REMARK  197  A    between atoms: _471  and  _473
REMARK  198  A    between atoms: _473  and  _474
REMARK  199  A    between atoms: _473  and  _476
REMARK  200  A    between atoms: _476  and  _477
REMARK  201  A    between atoms: _482  and  _483
REMARK  202  A    between atoms: _485  and  _487
REMARK  203  A    between atoms: _487  and  _488
REMARK  204  A    between atoms: _487  and  _490
REMARK  205  A    between atoms: _490  and  _491
REMARK  206  A    between atoms: _491  and  _492
REMARK  207  A    between atoms: _497  and  _499
REMARK  208  A    between atoms: _499  and  _500
REMARK  209  A    between atoms: _499  and  _502
REMARK  210  A    between atoms: _502  and  _503
REMARK  211  A    between atoms: _503  and  _504
REMARK  212  A    between atoms: _509  and  _511
REMARK  213  A    between atoms: _511  and  _512
REMARK  214  A    between atoms: _511  and  _514
REMARK  215  A    between atoms: _514  and  _515
REMARK  216  A    between atoms: _520  and  _521
REMARK  217  A    between atoms: _523  and  _525
REMARK  218  A    between atoms: _525  and  _526
REMARK  219  A    between atoms: _529  and  _531
REMARK  220  A    between atoms: _531  and  _532
REMARK  221  A    between atoms: _531  and  _534
REMARK  222  A    between atoms: _534  and  _535
REMARK  223  A    between atoms: _540  and  _541
REMARK  224  A    between atoms: _543  and  _545
REMARK  225  A    between atoms: _545  and  _546
REMARK  226  A    between atoms: _545  and  _548
REMARK  227  A    between atoms: _548  and  _549
REMARK  228  A    between atoms: _552  and  _554
REMARK  229  A    between atoms: _554  and  _555
REMARK  230  A    between atoms: _554  and  _557
REMARK  231  A    between atoms: _559  and  _561
REMARK  232  A    between atoms: _561  and  _562
REMARK  233  A    between atoms: _561  and  _564
REMARK  234  A    between atoms: _564  and  _565
REMARK  235  A    between atoms: _568  and  _570
REMARK  236  A    between atoms: _570  and  _571
REMARK  237  A    between atoms: _570  and  _573
REMARK  238  A    between atoms: _573  and  _574
REMARK  239  A    between atoms: _579  and  _580
REMARK  240  A    between atoms: _582  and  _584
REMARK  241  A    between atoms: _584  and  _585
REMARK  242  A    between atoms: _584  and  _587
REMARK  243  A    between atoms: _587  and  _588
REMARK  244  A    between atoms: _591  and  _593
REMARK  245  A    between atoms: _593  and  _594
REMARK  246  A    between atoms: _593  and  _596
REMARK  247  A    between atoms: _596  and  _597
REMARK  248  A    between atoms: _607  and  _609
REMARK  249  A    between atoms: _609  and  _610
REMARK  250  A    between atoms: _613  and  _615
REMARK  251  A    between atoms: _615  and  _616
REMARK  252  A    between atoms: _619  and  _621
REMARK  253  A    between atoms: _621  and  _622
REMARK  254  A    between atoms: _621  and  _624
REMARK  255  A    between atoms: _624  and  _625
REMARK  256  A    between atoms: _628  and  _630
REMARK  257  A    between atoms: _630  and  _631
REMARK  258  A    between atoms: _630  and  _633
REMARK  259  A    between atoms: _633  and  _634
REMARK  260  A    between atoms: _637  and  _639
REMARK  261  A    between atoms: _639  and  _640
REMARK  262  A    between atoms: _639  and  _642
REMARK  263  A    between atoms: _642  and  _643
REMARK  264  A    between atoms: _646  and  _648
REMARK  265  A    between atoms: _648  and  _649
REMARK  266  A    between atoms: _648  and  _651
REMARK  267  A    between atoms: _651  and  _652
REMARK  268  A    between atoms: _652  and  _653
REMARK  269  A    between atoms: _653  and  _654
REMARK  270  A    between atoms: _654  and  _655
REMARK  271  A    between atoms: _659  and  _661
REMARK  272  A    between atoms: _661  and  _662
REMARK  273  A    between atoms: _661  and  _664
REMARK  274  A    between atoms: _664  and  _665
REMARK  275  A    between atoms: _670  and  _672
REMARK  276  A    between atoms: _672  and  _673
REMARK  277  A    between atoms: _672  and  _675
REMARK  278  A    between atoms: _675  and  _676
REMARK  279  A    between atoms: _676  and  _677
REMARK  280  A    between atoms: _677  and  _678
REMARK  281  A    between atoms: _678  and  _679
REMARK  282  A    between atoms: _683  and  _685
REMARK  283  A    between atoms: _685  and  _686
REMARK  284  A    between atoms: _685  and  _688
REMARK  285  A    between atoms: _688  and  _689
REMARK  286  A    between atoms: _699  and  _701
REMARK  287  A    between atoms: _701  and  _702
REMARK  288  A    between atoms: _701  and  _704
REMARK  289  A    between atoms: _704  and  _705
REMARK  290  A    between atoms: _705  and  _706
REMARK  291  A    between atoms: _711  and  _713
REMARK  292  A    between atoms: _713  and  _714
REMARK  293  A    between atoms: _717  and  _719
REMARK  294  A    between atoms: _719  and  _720
REMARK  295  A    between atoms: _722  and  _724
REMARK  296  A    between atoms: _724  and  _725
REMARK  297  A    between atoms: _724  and  _727
REMARK  298  A    between atoms: _727  and  _728
REMARK  299  A    between atoms: _728  and  _729
REMARK  300  A    between atoms: _732  and  _734
REMARK  301  A    between atoms: _734  and  _735
REMARK  302  A    between atoms: _738  and  _740
REMARK  303  A    between atoms: _740  and  _741
REMARK  304  A    between atoms: _740  and  _743
REMARK  305  A    between atoms: _743  and  _744
REMARK  306  A    between atoms: _744  and  _745
REMARK  307  A    between atoms: _745  and  _746
REMARK  308  A    between atoms: _755  and  _757
REMARK  309  A    between atoms: _757  and  _758
REMARK  310  A    between atoms: _757  and  _760
REMARK  311  A    between atoms: _760  and  _761
REMARK  312  A    between atoms: _764  and  _766
REMARK  313  A    between atoms: _766  and  _767
REMARK  314  A    between atoms: _766  and  _769
REMARK  315  A    between atoms: _769  and  _770
REMARK  316  A    between atoms: _775  and  _776
REMARK  317  A    between atoms: _778  and  _780
REMARK  318  A    between atoms: _780  and  _781
REMARK  319  A    between atoms: _780  and  _783
REMARK  320  A    between atoms: _783  and  _784
REMARK  321  A    between atoms: _787  and  _789
REMARK  322  A    between atoms: _789  and  _790
REMARK  323  A    between atoms: _789  and  _792
REMARK  324  A    between atoms: _792  and  _793
REMARK  325  A    between atoms: _796  and  _798
REMARK  326  A    between atoms: _798  and  _799
REMARK  327  A    between atoms: _798  and  _801
REMARK  328  A    between atoms: _801  and  _802
REMARK  329  A    between atoms: _803  and  _805
REMARK  330  A    between atoms: _805  and  _806
REMARK  331  A    between atoms: _805  and  _808
REMARK  332  A    between atoms: _811  and  _813
REMARK  333  A    between atoms: _813  and  _814
REMARK  334  A    between atoms: _813  and  _816
REMARK  335  A    between atoms: _816  and  _817
REMARK  336  A    between atoms: _817  and  _818
REMARK  337  A    between atoms: _821  and  _823
REMARK  338  A    between atoms: _823  and  _824
REMARK  339  A    between atoms: _823  and  _826
REMARK  340  A    between atoms: _826  and  _827
REMARK  341  A    between atoms: _837  and  _839
REMARK  342  A    between atoms: _839  and  _840
REMARK  343  A    between atoms: _839  and  _842
REMARK  344  A    between atoms: _842  and  _843
REMARK  345  A    between atoms: _846  and  _848
REMARK  346  A    between atoms: _848  and  _849
REMARK  347  A    between atoms: _848  and  _851
REMARK  348  A    between atoms: _851  and  _852
REMARK  349  A    between atoms: _852  and  _853
REMARK  350  A    between atoms: _853  and  _854
REMARK  351  A    between atoms: _863  and  _865
REMARK  352  A    between atoms: _865  and  _866
REMARK  353  A    between atoms: _865  and  _868
REMARK  354  A    between atoms: _868  and  _869
REMARK  355  A    between atoms: _874  and  _875
REMARK                            x       y       z     vdW  Elec       q    Type
REMARK                         _______ _______ _______ _____ _____    ______ ____
ROOT
ATOM      1  CA  GLU A   1      58.766  19.510  15.611  0.00  0.00    +0.134 C 
ENDROOT
BRANCH   1   2
ATOM      2  N   GLU A   1      57.679  18.951  16.424  0.00  0.00    -0.239 NA
ATOM      3  H   GLU A   1      56.714  19.319  16.305  0.00  0.00    +0.142 HD
ENDBRANCH   1   2
BRANCH   1   4
ATOM      4  C   GLU A   1      59.437  20.653  16.364  0.00  0.00    +0.224 C 
ATOM      5  O   GLU A   1      58.768  21.423  17.038  0.00  0.00    -0.287 OA
ENDBRANCH   1   4
BRANCH   1   6
ATOM      6  CB  GLU A   1      58.260  20.013  14.252  0.00  0.00    +0.037 C 
BRANCH   6   7
ATOM      7  CG  GLU A   1      57.643  18.951  13.350  0.00  0.00    +0.116 C 
BRANCH   7   8
ATOM      8  CD  GLU A   1      58.582  17.800  13.019  0.00  0.00    +0.365 C 
ATOM      9  OE2 GLU A   1      59.821  17.967  13.086  0.00  0.00    -0.246 OA
ATOM     10  OE1 GLU A   1      58.077  16.709  12.691  0.00  0.00    -0.246 OA
ENDBRANCH   7   8
ENDBRANCH   6   7
ENDBRANCH   1   6
TORSDOF 5
REMARK  Name = ../refined-set-2016/4pge/4pge_pocket.pdb
REMARK  355 active torsions:
REMARK  status: ('A' for Active; 'I' for Inactive)
REMARK    1  A    between atoms: _1  and  _3
REMARK    2  A    between atoms: _3  and  _4
REMARK    3  A    between atoms: _3  and  _6
REMARK    4  A    between atoms: _6  and  _7
REMARK    5  A    between atoms: _10  and  _12
REMARK    6  A    between atoms: _12  and  _13
REMARK    7  A    between atoms: _12  and  _15
REMARK    8  A    between atoms: _15  and  _16
REMARK    9  A    between atoms: _16  and  _17
REMARK   10  A    between atoms: _17  and  _18
REMARK   11  A    between atoms: _27  and  _29
REMARK   12  A    between atoms: _29  and  _30
REMARK   13  A    between atoms: _29  and  _32
REMARK   14  A    between atoms: _32  and  _33
REMARK   15  A    between atoms: _38  and  _39
REMARK   16  A    between atoms: _41  and  _43
REMARK   17  A    between atoms: _43  and  _44
REMARK   18  A    between atoms: _43  and  _46
REMARK   19  A    between atoms: _46  and  _47
REMARK   20  A    between atoms: _53  and  _55
REMARK   21  A    between atoms: _55  and  _56
REMARK   22  A    between atoms: _55  and  _58
REMARK   23  A    between atoms: _61  and  _63
REMARK   24  A    between atoms: _63  and  _64
REMARK   25  A    between atoms: _63  and  _66
REMARK   26  A    between atoms: _66  and  _67
REMARK   27  A    between atoms: _70  and  _72
REMARK   28  A    between atoms: _72  and  _73
REMARK   29  A    between atoms: _76  and  _78
REMARK   30  A    between atoms: _78  and  _79
REMARK   31  A    between atoms: _78  and  _81
REMARK   32  A    between atoms: _81  and  _82
REMARK   33  A    between atoms: _87  and  _88
REMARK   34  A    between atoms: _90  and  _92
REMARK   35  A    between atoms: _92  and  _93
REMARK   36  A    between atoms: _92  and  _95
REMARK   37  A    between atoms: _95  and  _96
REMARK   38  A    between atoms: _96  and  _97
REMARK   39  A    between atoms: _99  and  _101
REMARK   40  A    between atoms: _101  and  _102
REMARK   41  A    between atoms: _101  and  _104
REMARK   42  A    between atoms: _104  and  _105
REMARK   43  A    between atoms: _105  and  _106
REMARK   44  A    between atoms: _109  and  _111
REMARK   45  A    between atoms: _111  and  _112
REMARK   46  A    between atoms: _111  and  _114
REMARK   47  A    between atoms: _117  and  _119
REMARK   48  A    between atoms: _119  and  _120
REMARK   49  A    between atoms: _122  and  _124
REMARK   50  A    between atoms: _124  and  _125
REMARK   51  A    between atoms: _124  and  _127
REMARK   52  A    between atoms: _130  and  _132
REMARK   53  A    between atoms: _132  and  _133
REMARK   54  A    between atoms: _132  and  _135
REMARK   55  A    between atoms: _135  and  _136
REMARK   56  A    between atoms: _142  and  _144
REMARK   57  A    between atoms: _144  and  _145
REMARK   58  A    between atoms: _144  and  _147
REMARK   59  A    between atoms: _150  and  _152
REMARK   60  A    between atoms: _152  and  _153
REMARK   61  A    between atoms: _152  and  _155
REMARK   62  A    between atoms: _155  and  _156
REMARK   63  A    between atoms: _161  and  _162
REMARK   64  A    between atoms: _164  and  _166
REMARK   65  A    between atoms: _166  and  _167
REMARK   66  A    between atoms: _166  and  _169
REMARK   67  A    between atoms: _169  and  _170
REMARK   68  A    between atoms: _170  and  _171
REMARK   69  A    between atoms: _173  and  _175
REMARK   70  A    between atoms: _175  and  _176
REMARK   71  A    between atoms: _175  and  _178
REMARK   72  A    between atoms: _178  and  _179
REMARK   73  A    between atoms: _179  and  _180
REMARK   74  A    between atoms: _183  and  _185
REMARK   75  A    between atoms: _185  and  _186
REMARK   76  A    between atoms: _185  and  _188
REMARK   77  A    between atoms: _188  and  _189
REMARK   78  A    between atoms: _189  and  _190
REMARK   79  A    between atoms: _193  and  _195
REMARK   80  A    between atoms: _195  and  _196
REMARK   81  A    between atoms: _195  and  _198
REMARK   82  A    between atoms: _198  and  _199
REMARK   83  A    between atoms: _204  and  _205
REMARK   84  A    between atoms: _207  and  _209
REMARK   85  A    between atoms: _209  and  _210
REMARK   86  A    between atoms: _209  and  _212
REMARK   87  A    between atoms: _212  and  _213
REMARK   88  A    between atoms: _213  and  _214
REMARK   89  A    between atoms: _214  and  _215
REMARK   90  A    between atoms: _224  and  _226
REMARK   91  A    between atoms: _226  and  _227
REMARK   92  A    between atoms: _226  and  _229
REMARK   93  A    between atoms: _229  and  _230
REMARK   94  A    between atoms: _230  and  _231
REMARK   95  A    between atoms: _234  and  _236
REMARK   96  A    between atoms: _236  and  _237
REMARK   97  A    between atoms: _236  and  _239
REMARK   98  A    between atoms: _239  and  _240
REMARK   99  A    between atoms: _243  and  _245
REMARK  100  A    between atoms: _245  and  _246
REMARK  101  A    between atoms: _245  and  _248
REMARK  102  A    between atoms: _248  and  _249
REMARK  103  A    between atoms: _249  and  _250
REMARK  104  A    between atoms: _255  and  _257
REMARK  105  A    between atoms: _257  and  _258
REMARK  106  A    between atoms: _257  and  _260
REMARK  107  A    between atoms: _260  and  _261
REMARK  108  A    between atoms: _261  and  _262
REMARK  109  A    between atoms: _262  and  _263
REMARK  110  A    between atoms: _263  and  _264
REMARK  111  A    between atoms: _268  and  _270
REMARK  112  A    between atoms: _270  and  _271
REMARK  113  A    between atoms: _274  and  _276
REMARK  114  A    between atoms: _276  and  _277
REMARK  115  A    between atoms: _279  and  _281
REMARK  116  A    between atoms: _281  and  _282
REMARK  117  A    between atoms: _281  and  _284
REMARK  118  A    between atoms: _284  and  _285
REMARK  119  A    between atoms: _290  and  _292
REMARK  120  A    between atoms: _292  and  _293
REMARK  121  A    between atoms: _292  and  _295
REMARK  122  A    between atoms: _295  and  _296
REMARK  123  A    between atoms: _296  and  _297
REMARK  124  A    between atoms: _300  and  _302
REMARK  125  A    between atoms: _302  and  _303
REMARK  126  A    between atoms: _302  and  _305
REMARK  127  A    between atoms: _305  and  _306
REMARK  128  A    between atoms: _306  and  _307
REMARK  129  A    between atoms: _312  and  _314
REMARK  130  A    between atoms: _314  and  _315
REMARK  131  A    between atoms: _314  and  _317
REMARK  132  A    between atoms: _317  and  _318
REMARK  133  A    between atoms: _320  and  _322
REMARK  134  A    between atoms: _322  and  _323
REMARK  135  A    between atoms: _322  and  _325
REMARK  136  A    between atoms: _325  and  _326
REMARK  137  A    between atoms: _332  and  _334
REMARK  138  A    between atoms: _334  and  _335
REMARK  139  A    between atoms: _334  and  _337
REMARK  140  A    between atoms: _340  and  _342
REMARK  141  A    between atoms: _342  and  _343
REMARK  142  A    between atoms: _342  and  _345
REMARK  143  A    between atoms: _345  and  _346
REMARK  144  A    between atoms: _349  and  _351
REMARK  145  A    between atoms: _351  and  _352
REMARK  146  A    between atoms: _351  and  _354
REMARK  147  A    between atoms: _354  and  _355
REMARK  148  A    between atoms: _358  and  _360
REMARK  149  A    between atoms: _360  and  _361
REMARK  150  A    between atoms: _360  and  _363
REMARK  151  A    between atoms: _363  and  _364
REMARK  152  A    between atoms: _367  and  _369
REMARK  153  A    between atoms: _369  and  _370
REMARK  154  A    between atoms: _369  and  _372
REMARK  155  A    between atoms: _372  and  _373
REMARK  156  A    between atoms: _376  and  _378
REMARK  157  A    between atoms: _378  and  _379
REMARK  158  A    between atoms: _378  and  _381
REMARK  159  A    between atoms: _381  and  _382
REMARK  160  A    between atoms: _387  and  _388
REMARK  161  A    between atoms: _390  and  _392
REMARK  162  A    between atoms: _392  and  _393
REMARK  163  A    between atoms: _392  and  _395
REMARK  164  A    between atoms: _395  and  _396
REMARK  165  A    between atoms: _401  and  _402
REMARK  166  A    between atoms: _404  and  _406
REMARK  167  A    between atoms: _406  and  _407
REMARK  168  A    between atoms: _406  and  _409
REMARK  169  A    between atoms: _409  and  _410
REMARK  170  A    between atoms: _413  and  _415
REMARK  171  A    between atoms: _415  and  _416
REMARK  172  A    between atoms: _415  and  _418
REMARK  173  A    between atoms: _418  and  _419
REMARK  174  A    between atoms: _422  and  _424
REMARK  175  A    between atoms: _424  and  _425
REMARK  176  A    between atoms: _424  and  _427
REMARK  177  A    between atoms: _427  and  _428
REMARK  178  A    between atoms: _428  and  _429
REMARK  179  A    between atoms: _434  and  _436
REMARK  180  A    between atoms: _436  and  _437
REMARK  181  A    between atoms: _436  and  _439
REMARK  182  A    between atoms: _442  and  _444
REMARK  183  A    between atoms: _444  and  _445
REMARK  184  A    between atoms: _444  and  _447
REMARK  185  A    between atoms: _447  and  _448
REMARK  186  A    between atoms: _451  and  _453
REMARK  187  A    between atoms: _453  and  _454
REMARK  188  A    between atoms: _453  and  _456
REMARK  189  A    between atoms: _456  and  _457
REMARK  190  A    between atoms: _459  and  _461
REMARK  191  A    between atoms: _461  and  _462
REMARK  192  A    between atoms: _464  and  _466
REMARK  193  A    between atoms: _466  and  _467
REMARK  194  A    between atoms: _466  and  _469
REMARK  195  A    between atoms: _469  and  _470
REMARK  196  A    between atoms: _470  and  _802
REMARK  197  A    between atoms: _471  and  _473
REMARK  198  A    between atoms: _473  and  _474
REMARK  199  A    between atoms: _473  and  _476
REMARK  200  A    between atoms: _476  and  _477
REMARK  201  A    between atoms: _482  and  _483
REMARK  202  A    between atoms: _485  and  _487
REMARK  203  A    between atoms: _487  and  _488
REMARK  204  A    between atoms: _487  and  _490
REMARK  205  A    between atoms: _490  and  _491
REMARK  206  A    between atoms: _491  and  _492
REMARK  207  A    between atoms: _497  and  _499
REMARK  208  A    between atoms: _499  and  _500
REMARK  209  A    between atoms: _499  and  _502
REMARK  210  A    between atoms: _502  and  _503
REMARK  211  A    between atoms: _503  and  _504
REMARK  212  A    between atoms: _509  and  _511
REMARK  213  A    between atoms: _511  and  _512
REMARK  214  A    between atoms: _511  and  _514
REMARK  215  A    between atoms: _514  and  _515
REMARK  216  A    between atoms: _520  and  _521
REMARK  217  A    between atoms: _523  and  _525
REMARK  218  A    between atoms: _525  and  _526
REMARK  219  A    between atoms: _529  and  _531
REMARK  220  A    between atoms: _531  and  _532
REMARK  221  A    between atoms: _531  and  _534
REMARK  222  A    between atoms: _534  and  _535
REMARK  223  A    between atoms: _540  and  _541
REMARK  224  A    between atoms: _543  and  _545
REMARK  225  A    between atoms: _545  and  _546
REMARK  226  A    between atoms: _545  and  _548
REMARK  227  A    between atoms: _548  and  _549
REMARK  228  A    between atoms: _552  and  _554
REMARK  229  A    between atoms: _554  and  _555
REMARK  230  A    between atoms: _554  and  _557
REMARK  231  A    between atoms: _559  and  _561
REMARK  232  A    between atoms: _561  and  _562
REMARK  233  A    between atoms: _561  and  _564
REMARK  234  A    between atoms: _564  and  _565
REMARK  235  A    between atoms: _568  and  _570
REMARK  236  A    between atoms: _570  and  _571
REMARK  237  A    between atoms: _570  and  _573
REMARK  238  A    between atoms: _573  and  _574
REMARK  239  A    between atoms: _579  and  _580
REMARK  240  A    between atoms: _582  and  _584
REMARK  241  A    between atoms: _584  and  _585
REMARK  242  A    between atoms: _584  and  _587
REMARK  243  A    between atoms: _587  and  _588
REMARK  244  A    between atoms: _591  and  _593
REMARK  245  A    between atoms: _593  and  _594
REMARK  246  A    between atoms: _593  and  _596
REMARK  247  A    between atoms: _596  and  _597
REMARK  248  A    between atoms: _607  and  _609
REMARK  249  A    between atoms: _609  and  _610
REMARK  250  A    between atoms: _613  and  _615
REMARK  251  A    between atoms: _615  and  _616
REMARK  252  A    between atoms: _619  and  _621
REMARK  253  A    between atoms: _621  and  _622
REMARK  254  A    between atoms: _621  and  _624
REMARK  255  A    between atoms: _624  and  _625
REMARK  256  A    between atoms: _628  and  _630
REMARK  257  A    between atoms: _630  and  _631
REMARK  258  A    between atoms: _630  and  _633
REMARK  259  A    between atoms: _633  and  _634
REMARK  260  A    between atoms: _637  and  _639
REMARK  261  A    between atoms: _639  and  _640
REMARK  262  A    between atoms: _639  and  _642
REMARK  263  A    between atoms: _642  and  _643
REMARK  264  A    between atoms: _646  and  _648
REMARK  265  A    between atoms: _648  and  _649
REMARK  266  A    between atoms: _648  and  _651
REMARK  267  A    between atoms: _651  and  _652
REMARK  268  A    between atoms: _652  and  _653
REMARK  269  A    between atoms: _653  and  _654
REMARK  270  A    between atoms: _654  and  _655
REMARK  271  A    between atoms: _659  and  _661
REMARK  272  A    between atoms: _661  and  _662
REMARK  273  A    between atoms: _661  and  _664
REMARK  274  A    between atoms: _664  and  _665
REMARK  275  A    between atoms: _670  and  _672
REMARK  276  A    between atoms: _672  and  _673
REMARK  277  A    between atoms: _672  and  _675
REMARK  278  A    between atoms: _675  and  _676
REMARK  279  A    between atoms: _676  and  _677
REMARK  280  A    between atoms: _677  and  _678
REMARK  281  A    between atoms: _678  and  _679
REMARK  282  A    between atoms: _683  and  _685
REMARK  283  A    between atoms: _685  and  _686
REMARK  284  A    between atoms: _685  and  _688
REMARK  285  A    between atoms: _688  and  _689
REMARK  286  A    between atoms: _699  and  _701
REMARK  287  A    between atoms: _701  and  _702
REMARK  288  A    between atoms: _701  and  _704
REMARK  289  A    between atoms: _704  and  _705
REMARK  290  A    between atoms: _705  and  _706
REMARK  291  A    between atoms: _711  and  _713
REMARK  292  A    between atoms: _713  and  _714
REMARK  293  A    between atoms: _717  and  _719
REMARK  294  A    between atoms: _719  and  _720
REMARK  295  A    between atoms: _722  and  _724
REMARK  296  A    between atoms: _724  and  _725
REMARK  297  A    between atoms: _724  and  _727
REMARK  298  A    between atoms: _727  and  _728
REMARK  299  A    between atoms: _728  and  _729
REMARK  300  A    between atoms: _732  and  _734
REMARK  301  A    between atoms: _734  and  _735
REMARK  302  A    between atoms: _738  and  _740
REMARK  303  A    between atoms: _740  and  _741
REMARK  304  A    between atoms: _740  and  _743
REMARK  305  A    between atoms: _743  and  _744
REMARK  306  A    between atoms: _744  and  _745
REMARK  307  A    between atoms: _745  and  _746
REMARK  308  A    between atoms: _755  and  _757
REMARK  309  A    between atoms: _757  and  _758
REMARK  310  A    between atoms: _757  and  _760
REMARK  311  A    between atoms: _760  and  _761
REMARK  312  A    between atoms: _764  and  _766
REMARK  313  A    between atoms: _766  and  _767
REMARK  314  A    between atoms: _766  and  _769
REMARK  315  A    between atoms: _769  and  _770
REMARK  316  A    between atoms: _775  and  _776
REMARK  317  A    between atoms: _778  and  _780
REMARK  318  A    between atoms: _780  and  _781
REMARK  319  A    between atoms: _780  and  _783
REMARK  320  A    between atoms: _783  and  _784
REMARK  321  A    between atoms: _787  and  _789
REMARK  322  A    between atoms: _789  and  _790
REMARK  323  A    between atoms: _789  and  _792
REMARK  324  A    between atoms: _792  and  _793
REMARK  325  A    between atoms: _796  and  _798
REMARK  326  A    between atoms: _798  and  _799
REMARK  327  A    between atoms: _798  and  _801
REMARK  328  A    between atoms: _801  and  _802
REMARK  329  A    between atoms: _803  and  _805
REMARK  330  A    between atoms: _805  and  _806
REMARK  331  A    between atoms: _805  and  _808
REMARK  332  A    between atoms: _811  and  _813
REMARK  333  A    between atoms: _813  and  _814
REMARK  334  A    between atoms: _813  and  _816
REMARK  335  A    between atoms: _816  and  _817
REMARK  336  A    between atoms: _817  and  _818
REMARK  337  A    between atoms: _821  and  _823
REMARK  338  A    between atoms: _823  and  _824
REMARK  339  A    between atoms: _823  and  _826
REMARK  340  A    between atoms: _826  and  _827
REMARK  341  A    between atoms: _837  and  _839
REMARK  342  A    between atoms: _839  and  _840
REMARK  343  A    between atoms: _839  and  _842
REMARK  344  A    between atoms: _842  and  _843
REMARK  345  A    between atoms: _846  and  _848
REMARK  346  A    between atoms: _848  and  _849
REMARK  347  A    between atoms: _848  and  _851
REMARK  348  A    between atoms: _851  and  _852
REMARK  349  A    between atoms: _852  and  _853
REMARK  350  A    between atoms: _853  and  _854
REMARK  351  A    between atoms: _863  and  _865
REMARK  352  A    between atoms: _865  and  _866
REMARK  353  A    between atoms: _865  and  _868
REMARK  354  A    between atoms: _868  and  _869
REMARK  355  A    between atoms: _874  and  _875
REMARK                            x       y       z     vdW  Elec       q    Type
REMARK                         _______ _______ _______ _____ _____    ______ ____
ROOT
ATOM      1  C   GLU A   1      63.442  24.457  12.265  0.00  0.00    +0.238 C 
ATOM      2  N   TYR A   2      62.491  23.556  12.505  0.00  0.00    -0.298 N 
ATOM      3  H   TYR A   2      62.446  23.113  13.445  0.00  0.00    +0.150 HD
ATOM      4  O   GLU A   1      63.621  24.966  11.155  0.00  0.00    -0.274 OA
ENDROOT
BRANCH   1   5
ATOM      5  CA  GLU A   1      64.339  24.828  13.449  0.00  0.00    +0.145 C 
BRANCH   5   6
ATOM      6  N   GLU A   1      63.613  24.833  14.724  0.00  0.00    -0.238 NA
ATOM      7  H   GLU A   1      63.879  24.143  15.455  0.00  0.00    +0.142 HD
ENDBRANCH   5   6
BRANCH   5   8
ATOM      8  CB  GLU A   1      65.529  23.862  13.508  0.00  0.00    +0.038 C 
BRANCH   8   9
ATOM      9  CG  GLU A   1      66.533  24.166  14.617  0.00  0.00    +0.116 C 
BRANCH   9  10
ATOM     10  CD  GLU A   1      66.231  23.465  15.941  0.00  0.00    +0.365 C 
ATOM     11  OE2 GLU A   1      67.149  23.416  16.792  0.00  0.00    -0.246 OA
ATOM     12  OE1 GLU A   1      65.092  22.970  16.143  0.00  0.00    -0.246 OA
ENDBRANCH   9  10
ENDBRANCH   8   9
ENDBRANCH   5   8
ENDBRANCH   1   5
BRANCH   2  13
ATOM     13  CA  TYR A   2      61.510  23.168  11.496  0.00  0.00    +0.141 C 
BRANCH  13  14
ATOM     14  C   TYR A   2      60.718  24.388  11.021  0.00  0.00    +0.227 C 
ATOM     15  O   TYR A   2      60.640  24.662   9.817  0.00  0.00    -0.286 OA
ENDBRANCH  13  14
BRANCH  13  16
ATOM     16  CB  TYR A   2      60.563  22.102  12.068  0.00  0.00    +0.054 C 
BRANCH  16  17
ATOM     17  CG  TYR A   2      59.466  21.667  11.121  0.00  0.00    -0.020 A 
ATOM     18  CD2 TYR A   2      58.244  22.333  11.094  0.00  0.00    -0.001 A 
ATOM     19  CE2 TYR A   2      57.233  21.949  10.230  0.00  0.00    +0.036 A 
ATOM     20  CZ  TYR A   2      57.444  20.888   9.366  0.00  0.00    +0.134 A 
ATOM     21  CE1 TYR A   2      58.648  20.201   9.378  0.00  0.00    +0.036 A 
ATOM     22  CD1 TYR A   2      59.653  20.597  10.251  0.00  0.00    -0.001 A 
BRANCH  20  23
ATOM     23  OH  TYR A   2      56.440  20.502   8.520  0.00  0.00    -0.506 OA
ATOM     24  HH  TYR A   2      56.747  19.736   7.973  0.00  0.00    +0.292 HD
ENDBRANCH  20  23
ENDBRANCH  16  17
ENDBRANCH  13  16
ENDBRANCH   2  13
TORSDOF 10
REMARK  Name = ../refined-set-2016/4pge/4pge_pocket.pdb
REMARK  355 active torsions:
REMARK  status: ('A' for Active; 'I' for Inactive)
REMARK    1  A    between atoms: _1  and  _3
REMARK    2  A    between atoms: _3  and  _4
REMARK    3  A    between atoms: _3  and  _6
REMARK    4  A    between atoms: _6  and  _7
REMARK    5  A    between atoms: _10  and  _12
REMARK    6  A    between atoms: _12  and  _13
REMARK    7  A    between atoms: _12  and  _15
REMARK    8  A    between atoms: _15  and  _16
REMARK    9  A    between atoms: _16  and  _17
REMARK   10  A    between atoms: _17  and  _18
REMARK   11  A    between atoms: _27  and  _29
REMARK   12  A    between atoms: _29  and  _30
REMARK   13  A    between atoms: _29  and  _32
REMARK   14  A    between atoms: _32  and  _33
REMARK   15  A    between atoms: _38  and  _39
REMARK   16  A    between atoms: _41  and  _43
REMARK   17  A    between atoms: _43  and  _44
REMARK   18  A    between atoms: _43  and  _46
REMARK   19  A    between atoms: _46  and  _47
REMARK   20  A    between atoms: _53  and  _55
REMARK   21  A    between atoms: _55  and  _56
REMARK   22  A    between atoms: _55  and  _58
REMARK   23  A    between atoms: _61  and  _63
REMARK   24  A    between atoms: _63  and  _64
REMARK   25  A    between atoms: _63  and  _66
REMARK   26  A    between atoms: _66  and  _67
REMARK   27  A    between atoms: _70  and  _72
REMARK   28  A    between atoms: _72  and  _73
REMARK   29  A    between atoms: _76  and  _78
REMARK   30  A    between atoms: _78  and  _79
REMARK   31  A    between atoms: _78  and  _81
REMARK   32  A    between atoms: _81  and  _82
REMARK   33  A    between atoms: _87  and  _88
REMARK   34  A    between atoms: _90  and  _92
REMARK   35  A    between atoms: _92  and  _93
REMARK   36  A    between atoms: _92  and  _95
REMARK   37  A    between atoms: _95  and  _96
REMARK   38  A    between atoms: _96  and  _97
REMARK   39  A    between atoms: _99  and  _101
REMARK   40  A    between atoms: _101  and  _102
REMARK   41  A    between atoms: _101  and  _104
REMARK   42  A    between atoms: _104  and  _105
REMARK   43  A    between atoms: _105  and  _106
REMARK   44  A    between atoms: _109  and  _111
REMARK   45  A    between atoms: _111  and  _112
REMARK   46  A    between atoms: _111  and  _114
REMARK   47  A    between atoms: _117  and  _119
REMARK   48  A    between atoms: _119  and  _120
REMARK   49  A    between atoms: _122  and  _124
REMARK   50  A    between atoms: _124  and  _125
REMARK   51  A    between atoms: _124  and  _127
REMARK   52  A    between atoms: _130  and  _132
REMARK   53  A    between atoms: _132  and  _133
REMARK   54  A    between atoms: _132  and  _135
REMARK   55  A    between atoms: _135  and  _136
REMARK   56  A    between atoms: _142  and  _144
REMARK   57  A    between atoms: _144  and  _145
REMARK   58  A    between atoms: _144  and  _147
REMARK   59  A    between atoms: _150  and  _152
REMARK   60  A    between atoms: _152  and  _153
REMARK   61  A    between atoms: _152  and  _155
REMARK   62  A    between atoms: _155  and  _156
REMARK   63  A    between atoms: _161  and  _162
REMARK   64  A    between atoms: _164  and  _166
REMARK   65  A    between atoms: _166  and  _167
REMARK   66  A    between atoms: _166  and  _169
REMARK   67  A    between atoms: _169  and  _170
REMARK   68  A    between atoms: _170  and  _171
REMARK   69  A    between atoms: _173  and  _175
REMARK   70  A    between atoms: _175  and  _176
REMARK   71  A    between atoms: _175  and  _178
REMARK   72  A    between atoms: _178  and  _179
REMARK   73  A    between atoms: _179  and  _180
REMARK   74  A    between atoms: _183  and  _185
REMARK   75  A    between atoms: _185  and  _186
REMARK   76  A    between atoms: _185  and  _188
REMARK   77  A    between atoms: _188  and  _189
REMARK   78  A    between atoms: _189  and  _190
REMARK   79  A    between atoms: _193  and  _195
REMARK   80  A    between atoms: _195  and  _196
REMARK   81  A    between atoms: _195  and  _198
REMARK   82  A    between atoms: _198  and  _199
REMARK   83  A    between atoms: _204  and  _205
REMARK   84  A    between atoms: _207  and  _209
REMARK   85  A    between atoms: _209  and  _210
REMARK   86  A    between atoms: _209  and  _212
REMARK   87  A    between atoms: _212  and  _213
REMARK   88  A    between atoms: _213  and  _214
REMARK   89  A    between atoms: _214  and  _215
REMARK   90  A    between atoms: _224  and  _226
REMARK   91  A    between atoms: _226  and  _227
REMARK   92  A    between atoms: _226  and  _229
REMARK   93  A    between atoms: _229  and  _230
REMARK   94  A    between atoms: _230  and  _231
REMARK   95  A    between atoms: _234  and  _236
REMARK   96  A    between atoms: _236  and  _237
REMARK   97  A    between atoms: _236  and  _239
REMARK   98  A    between atoms: _239  and  _240
REMARK   99  A    between atoms: _243  and  _245
REMARK  100  A    between atoms: _245  and  _246
REMARK  101  A    between atoms: _245  and  _248
REMARK  102  A    between atoms: _248  and  _249
REMARK  103  A    between atoms: _249  and  _250
REMARK  104  A    between atoms: _255  and  _257
REMARK  105  A    between atoms: _257  and  _258
REMARK  106  A    between atoms: _257  and  _260
REMARK  107  A    between atoms: _260  and  _261
REMARK  108  A    between atoms: _261  and  _262
REMARK  109  A    between atoms: _262  and  _263
REMARK  110  A    between atoms: _263  and  _264
REMARK  111  A    between atoms: _268  and  _270
REMARK  112  A    between atoms: _270  and  _271
REMARK  113  A    between atoms: _274  and  _276
REMARK  114  A    between atoms: _276  and  _277
REMARK  115  A    between atoms: _279  and  _281
REMARK  116  A    between atoms: _281  and  _282
REMARK  117  A    between atoms: _281  and  _284
REMARK  118  A    between atoms: _284  and  _285
REMARK  119  A    between atoms: _290  and  _292
REMARK  120  A    between atoms: _292  and  _293
REMARK  121  A    between atoms: _292  and  _295
REMARK  122  A    between atoms: _295  and  _296
REMARK  123  A    between atoms: _296  and  _297
REMARK  124  A    between atoms: _300  and  _302
REMARK  125  A    between atoms: _302  and  _303
REMARK  126  A    between atoms: _302  and  _305
REMARK  127  A    between atoms: _305  and  _306
REMARK  128  A    between atoms: _306  and  _307
REMARK  129  A    between atoms: _312  and  _314
REMARK  130  A    between atoms: _314  and  _315
REMARK  131  A    between atoms: _314  and  _317
REMARK  132  A    between atoms: _317  and  _318
REMARK  133  A    between atoms: _320  and  _322
REMARK  134  A    between atoms: _322  and  _323
REMARK  135  A    between atoms: _322  and  _325
REMARK  136  A    between atoms: _325  and  _326
REMARK  137  A    between atoms: _332  and  _334
REMARK  138  A    between atoms: _334  and  _335
REMARK  139  A    between atoms: _334  and  _337
REMARK  140  A    between atoms: _340  and  _342
REMARK  141  A    between atoms: _342  and  _343
REMARK  142  A    between atoms: _342  and  _345
REMARK  143  A    between atoms: _345  and  _346
REMARK  144  A    between atoms: _349  and  _351
REMARK  145  A    between atoms: _351  and  _352
REMARK  146  A    between atoms: _351  and  _354
REMARK  147  A    between atoms: _354  and  _355
REMARK  148  A    between atoms: _358  and  _360
REMARK  149  A    between atoms: _360  and  _361
REMARK  150  A    between atoms: _360  and  _363
REMARK  151  A    between atoms: _363  and  _364
REMARK  152  A    between atoms: _367  and  _369
REMARK  153  A    between atoms: _369  and  _370
REMARK  154  A    between atoms: _369  and  _372
REMARK  155  A    between atoms: _372  and  _373
REMARK  156  A    between atoms: _376  and  _378
REMARK  157  A    between atoms: _378  and  _379
REMARK  158  A    between atoms: _378  and  _381
REMARK  159  A    between atoms: _381  and  _382
REMARK  160  A    between atoms: _387  and  _388
REMARK  161  A    between atoms: _390  and  _392
REMARK  162  A    between atoms: _392  and  _393
REMARK  163  A    between atoms: _392  and  _395
REMARK  164  A    between atoms: _395  and  _396
REMARK  165  A    between atoms: _401  and  _402
REMARK  166  A    between atoms: _404  and  _406
REMARK  167  A    between atoms: _406  and  _407
REMARK  168  A    between atoms: _406  and  _409
REMARK  169  A    between atoms: _409  and  _410
REMARK  170  A    between atoms: _413  and  _415
REMARK  171  A    between atoms: _415  and  _416
REMARK  172  A    between atoms: _415  and  _418
REMARK  173  A    between atoms: _418  and  _419
REMARK  174  A    between atoms: _422  and  _424
REMARK  175  A    between atoms: _424  and  _425
REMARK  176  A    between atoms: _424  and  _427
REMARK  177  A    between atoms: _427  and  _428
REMARK  178  A    between atoms: _428  and  _429
REMARK  179  A    between atoms: _434  and  _436
REMARK  180  A    between atoms: _436  and  _437
REMARK  181  A    between atoms: _436  and  _439
REMARK  182  A    between atoms: _442  and  _444
REMARK  183  A    between atoms: _444  and  _445
REMARK  184  A    between atoms: _444  and  _447
REMARK  185  A    between atoms: _447  and  _448
REMARK  186  A    between atoms: _451  and  _453
REMARK  187  A    between atoms: _453  and  _454
REMARK  188  A    between atoms: _453  and  _456
REMARK  189  A    between atoms: _456  and  _457
REMARK  190  A    between atoms: _459  and  _461
REMARK  191  A    between atoms: _461  and  _462
REMARK  192  A    between atoms: _464  and  _466
REMARK  193  A    between atoms: _466  and  _467
REMARK  194  A    between atoms: _466  and  _469
REMARK  195  A    between atoms: _469  and  _470
REMARK  196  A    between atoms: _470  and  _802
REMARK  197  A    between atoms: _471  and  _473
REMARK  198  A    between atoms: _473  and  _474
REMARK  199  A    between atoms: _473  and  _476
REMARK  200  A    between atoms: _476  and  _477
REMARK  201  A    between atoms: _482  and  _483
REMARK  202  A    between atoms: _485  and  _487
REMARK  203  A    between atoms: _487  and  _488
REMARK  204  A    between atoms: _487  and  _490
REMARK  205  A    between atoms: _490  and  _491
REMARK  206  A    between atoms: _491  and  _492
REMARK  207  A    between atoms: _497  and  _499
REMARK  208  A    between atoms: _499  and  _500
REMARK  209  A    between atoms: _499  and  _502
REMARK  210  A    between atoms: _502  and  _503
REMARK  211  A    between atoms: _503  and  _504
REMARK  212  A    between atoms: _509  and  _511
REMARK  213  A    between atoms: _511  and  _512
REMARK  214  A    between atoms: _511  and  _514
REMARK  215  A    between atoms: _514  and  _515
REMARK  216  A    between atoms: _520  and  _521
REMARK  217  A    between atoms: _523  and  _525
REMARK  218  A    between atoms: _525  and  _526
REMARK  219  A    between atoms: _529  and  _531
REMARK  220  A    between atoms: _531  and  _532
REMARK  221  A    between atoms: _531  and  _534
REMARK  222  A    between atoms: _534  and  _535
REMARK  223  A    between atoms: _540  and  _541
REMARK  224  A    between atoms: _543  and  _545
REMARK  225  A    between atoms: _545  and  _546
REMARK  226  A    between atoms: _545  and  _548
REMARK  227  A    between atoms: _548  and  _549
REMARK  228  A    between atoms: _552  and  _554
REMARK  229  A    between atoms: _554  and  _555
REMARK  230  A    between atoms: _554  and  _557
REMARK  231  A    between atoms: _559  and  _561
REMARK  232  A    between atoms: _561  and  _562
REMARK  233  A    between atoms: _561  and  _564
REMARK  234  A    between atoms: _564  and  _565
REMARK  235  A    between atoms: _568  and  _570
REMARK  236  A    between atoms: _570  and  _571
REMARK  237  A    between atoms: _570  and  _573
REMARK  238  A    between atoms: _573  and  _574
REMARK  239  A    between atoms: _579  and  _580
REMARK  240  A    between atoms: _582  and  _584
REMARK  241  A    between atoms: _584  and  _585
REMARK  242  A    between atoms: _584  and  _587
REMARK  243  A    between atoms: _587  and  _588
REMARK  244  A    between atoms: _591  and  _593
REMARK  245  A    between atoms: _593  and  _594
REMARK  246  A    between atoms: _593  and  _596
REMARK  247  A    between atoms: _596  and  _597
REMARK  248  A    between atoms: _607  and  _609
REMARK  249  A    between atoms: _609  and  _610
REMARK  250  A    between atoms: _613  and  _615
REMARK  251  A    between atoms: _615  and  _616
REMARK  252  A    between atoms: _619  and  _621
REMARK  253  A    between atoms: _621  and  _622
REMARK  254  A    between atoms: _621  and  _624
REMARK  255  A    between atoms: _624  and  _625
REMARK  256  A    between atoms: _628  and  _630
REMARK  257  A    between atoms: _630  and  _631
REMARK  258  A    between atoms: _630  and  _633
REMARK  259  A    between atoms: _633  and  _634
REMARK  260  A    between atoms: _637  and  _639
REMARK  261  A    between atoms: _639  and  _640
REMARK  262  A    between atoms: _639  and  _642
REMARK  263  A    between atoms: _642  and  _643
REMARK  264  A    between atoms: _646  and  _648
REMARK  265  A    between atoms: _648  and  _649
REMARK  266  A    between atoms: _648  and  _651
REMARK  267  A    between atoms: _651  and  _652
REMARK  268  A    between atoms: _652  and  _653
REMARK  269  A    between atoms: _653  and  _654
REMARK  270  A    between atoms: _654  and  _655
REMARK  271  A    between atoms: _659  and  _661
REMARK  272  A    between atoms: _661  and  _662
REMARK  273  A    between atoms: _661  and  _664
REMARK  274  A    between atoms: _664  and  _665
REMARK  275  A    between atoms: _670  and  _672
REMARK  276  A    between atoms: _672  and  _673
REMARK  277  A    between atoms: _672  and  _675
REMARK  278  A    between atoms: _675  and  _676
REMARK  279  A    between atoms: _676  and  _677
REMARK  280  A    between atoms: _677  and  _678
REMARK  281  A    between atoms: _678  and  _679
REMARK  282  A    between atoms: _683  and  _685
REMARK  283  A    between atoms: _685  and  _686
REMARK  284  A    between atoms: _685  and  _688
REMARK  285  A    between atoms: _688  and  _689
REMARK  286  A    between atoms: _699  and  _701
REMARK  287  A    between atoms: _701  and  _702
REMARK  288  A    between atoms: _701  and  _704
REMARK  289  A    between atoms: _704  and  _705
REMARK  290  A    between atoms: _705  and  _706
REMARK  291  A    between atoms: _711  and  _713
REMARK  292  A    between atoms: _713  and  _714
REMARK  293  A    between atoms: _717  and  _719
REMARK  294  A    between atoms: _719  and  _720
REMARK  295  A    between atoms: _722  and  _724
REMARK  296  A    between atoms: _724  and  _725
REMARK  297  A    between atoms: _724  and  _727
REMARK  298  A    between atoms: _727  and  _728
REMARK  299  A    between atoms: _728  and  _729
REMARK  300  A    between atoms: _732  and  _734
REMARK  301  A    between atoms: _734  and  _735
REMARK  302  A    between atoms: _738  and  _740
REMARK  303  A    between atoms: _740  and  _741
REMARK  304  A    between atoms: _740  and  _743
REMARK  305  A    between atoms: _743  and  _744
REMARK  306  A    between atoms: _744  and  _745
REMARK  307  A    between atoms: _745  and  _746
REMARK  308  A    between atoms: _755  and  _757
REMARK  309  A    between atoms: _757  and  _758
REMARK  310  A    between atoms: _757  and  _760
REMARK  311  A    between atoms: _760  and  _761
REMARK  312  A    between atoms: _764  and  _766
REMARK  313  A    between atoms: _766  and  _767
REMARK  314  A    between atoms: _766  and  _769
REMARK  315  A    between atoms: _769  and  _770
REMARK  316  A    between atoms: _775  and  _776
REMARK  317  A    between atoms: _778  and  _780
REMARK  318  A    between atoms: _780  and  _781
REMARK  319  A    between atoms: _780  and  _783
REMARK  320  A    between atoms: _783  and  _784
REMARK  321  A    between atoms: _787  and  _789
REMARK  322  A    between atoms: _789  and  _790
REMARK  323  A    between atoms: _789  and  _792
REMARK  324  A    between atoms: _792  and  _793
REMARK  325  A    between atoms: _796  and  _798
REMARK  326  A    between atoms: _798  and  _799
REMARK  327  A    between atoms: _798  and  _801
REMARK  328  A    between atoms: _801  and  _802
REMARK  329  A    between atoms: _803  and  _805
REMARK  330  A    between atoms: _805  and  _806
REMARK  331  A    between atoms: _805  and  _808
REMARK  332  A    between atoms: _811  and  _813
REMARK  333  A    between atoms: _813  and  _814
REMARK  334  A    between atoms: _813  and  _816
REMARK  335  A    between atoms: _816  and  _817
REMARK  336  A    between atoms: _817  and  _818
REMARK  337  A    between atoms: _821  and  _823
REMARK  338  A    between atoms: _823  and  _824
REMARK  339  A    between atoms: _823  and  _826
REMARK  340  A    between atoms: _826  and  _827
REMARK  341  A    between atoms: _837  and  _839
REMARK  342  A    between atoms: _839  and  _840
REMARK  343  A    between atoms: _839  and  _842
REMARK  344  A    between atoms: _842  and  _843
REMARK  345  A    between atoms: _846  and  _848
REMARK  346  A    between atoms: _848  and  _849
REMARK  347  A    between atoms: _848  and  _851
REMARK  348  A    between atoms: _851  and  _852
REMARK  349  A    between atoms: _852  and  _853
REMARK  350  A    between atoms: _853  and  _854
REMARK  351  A    between atoms: _863  and  _865
REMARK  352  A    between atoms: _865  and  _866
REMARK  353  A    between atoms: _865  and  _868
REMARK  354  A    between atoms: _868  and  _869
REMARK  355  A    between atoms: _874  and  _875
REMARK                            x       y       z     vdW  Elec       q    Type
REMARK                         _______ _______ _______ _____ _____    ______ ____
ROOT
ATOM      1  CA  THR A   3      58.974  30.035   7.088  0.00  0.00    +0.176 C 
ENDROOT
BRANCH   1   2
ATOM      2  C   THR A   3      59.868  30.655   6.013  0.00  0.00    +0.243 C 
ATOM      3  N   GLN A   4      61.160  30.321   6.013  0.00  0.00    -0.297 N 
ATOM      4  H   GLN A   4      61.525  29.692   6.756  0.00  0.00    +0.150 HD
ATOM      5  O   THR A   3      59.376  31.396   5.170  0.00  0.00    -0.273 OA
BRANCH   3   6
ATOM      6  CA  GLN A   4      62.072  30.826   4.984  0.00  0.00    +0.149 C 
BRANCH   6   7
ATOM      7  C   GLN A   4      61.685  30.345   3.587  0.00  0.00    +0.241 C 
ATOM      8  N   LYS A   5      61.276  29.081   3.454  0.00  0.00    -0.297 N 
ATOM      9  H   LYS A   5      61.314  28.442   4.273  0.00  0.00    +0.150 HD
ATOM     10  O   GLN A   4      61.749  31.122   2.640  0.00  0.00    -0.273 OA
BRANCH   8  11
ATOM     11  CA  LYS A   5      60.772  28.578   2.166  0.00  0.00    +0.149 C 
BRANCH  11  12
ATOM     12  C   LYS A   5      59.564  29.371   1.689  0.00  0.00    +0.241 C 
ATOM     13  N   ALA A   6      58.619  29.580   2.596  0.00  0.00    -0.298 N 
ATOM     14  H   ALA A   6      58.773  29.252   3.571  0.00  0.00    +0.150 HD
ATOM     15  O   LYS A   5      59.476  29.756   0.527  0.00  0.00    -0.273 OA
BRANCH  13  16
ATOM     16  CA  ALA A   6      57.370  30.257   2.264  0.00  0.00    +0.137 C 
ATOM     17  CB  ALA A   6      56.444  30.279   3.470  0.00  0.00    +0.030 C 
BRANCH  16  18
ATOM     18  C   ALA A   6      57.614  31.676   1.751  0.00  0.00    +0.227 C 
ATOM     19  O   ALA A   6      57.037  32.076   0.736  0.00  0.00    -0.286 OA
ENDBRANCH  16  18
ENDBRANCH  13  16
ENDBRANCH  11  12
BRANCH  11  20
ATOM     20  CB  LYS A   5      60.324  27.117   2.260  0.00  0.00    +0.029 C 
BRANCH  20  21
ATOM     21  CG  LYS A   5      61.404  26.078   2.489  0.00  0.00    +0.000 C 
BRANCH  21  22
ATOM     22  CD  LYS A   5      60.737  24.712   2.396  0.00  0.00    -0.024 C 
BRANCH  22  23
ATOM     23  CE  LYS A   5      61.415  23.646   3.222  0.00  0.00    -0.086 C 
BRANCH  23  24
ATOM     24  NZ  LYS A   5      60.523  22.459   3.330  0.00  0.00    +0.380 N 
ATOM     25  HZ1 LYS A   5      60.991  21.725   3.899  0.00  0.00    -0.089 HD
ATOM     26  HZ2 LYS A   5      59.631  22.737   3.787  0.00  0.00    -0.089 HD
ATOM     27  HZ3 LYS A   5      60.325  22.088   2.379  0.00  0.00    -0.089 HD
ENDBRANCH  23  24
ENDBRANCH  22  23
ENDBRANCH  21  22
ENDBRANCH  20  21
ENDBRANCH  11  20
ENDBRANCH   8  11
ENDBRANCH   6   7
BRANCH   6  28
ATOM     28  CB  GLN A   4      63.531  30.457   5.279  0.00  0.00    +0.039 C 
BRANCH  28  29
ATOM     29  CG  GLN A   4      64.159  31.264   6.405  0.00  0.00    +0.087 C 
BRANCH  29  30
ATOM     30  CD  GLN A   4      65.611  30.878   6.675  0.00  0.00    +0.219 C 
ATOM     31  NE2 GLN A   4      66.074  31.135   7.899  0.00  0.00    -0.329 N 
ATOM     32 HE21 GLN A   4      65.453  31.573   8.609  0.00  0.00    +0.145 HD
ATOM     33 HE22 GLN A   4      67.056  30.897   8.144  0.00  0.00    +0.145 HD
ATOM     34  OE1 GLN A   4      66.307  30.359   5.795  0.00  0.00    -0.275 OA
ENDBRANCH  29  30
ENDBRANCH  28  29
ENDBRANCH   6  28
ENDBRANCH   3   6
ENDBRANCH   1   2
BRANCH   1  36
ATOM     35  C   GLU A   2      59.047  27.748   6.261  0.00  0.00    +0.241 C 
ATOM     36  N   THR A   3      59.276  28.612   7.243  0.00  0.00    -0.295 N 
ATOM     37  H   THR A   3      59.678  28.271   8.139  0.00  0.00    +0.150 HD
ATOM     38  O   GLU A   2      58.562  28.089   5.182  0.00  0.00    -0.273 OA
BRANCH  35  39
ATOM     39  CA  GLU A   2      59.432  26.287   6.519  0.00  0.00    +0.149 C 
BRANCH  39  41
ATOM     40  C   ARG A   1      61.826  26.695   6.816  0.00  0.00    +0.238 C 
ATOM     41  N   GLU A   2      60.680  26.195   7.283  0.00  0.00    -0.297 N 
ATOM     42  H   GLU A   2      60.672  25.728   8.212  0.00  0.00    +0.150 HD
ATOM     43  O   ARG A   1      61.928  27.221   5.706  0.00  0.00    -0.274 OA
BRANCH  40  44
ATOM     44  CA  ARG A   1      63.047  26.580   7.728  0.00  0.00    +0.145 C 
BRANCH  44  45
ATOM     45  N   ARG A   1      62.751  27.016   9.091  0.00  0.00    -0.238 NA
ATOM     46  H   ARG A   1      62.792  26.324   9.866  0.00  0.00    +0.142 HD
ENDBRANCH  44  45
BRANCH  44  47
ATOM     47  CB  ARG A   1      63.568  25.143   7.730  0.00  0.00    +0.030 C 
BRANCH  47  48
ATOM     48  CG  ARG A   1      63.959  24.614   6.362  0.00  0.00    +0.045 C 
BRANCH  48  49
ATOM     49  CD  ARG A   1      64.505  23.200   6.455  0.00  0.00    +0.174 C 
BRANCH  49  50
ATOM     50  NE  ARG A   1      65.936  23.188   6.755  0.00  0.00    -0.265 N 
ATOM     51  HE  ARG A   1      66.236  23.596   7.664  0.00  0.00    +0.259 HD
ATOM     52  CZ  ARG A   1      66.890  22.697   5.959  0.00  0.00    +0.342 C 
ATOM     53  NH2 ARG A   1      68.157  22.754   6.356  0.00  0.00    -0.292 N 
ATOM     54 HH21 ARG A   1      68.395  23.177   7.276  0.00  0.00    +0.255 HD
ATOM     55 HH22 ARG A   1      68.910  22.376   5.747  0.00  0.00    +0.255 HD
ATOM     56  NH1 ARG A   1      66.601  22.143   4.780  0.00  0.00    -0.292 N 
ATOM     57 HH11 ARG A   1      65.613  22.086   4.461  0.00  0.00    +0.255 HD
ATOM     58 HH12 ARG A   1      67.364  21.769   4.180  0.00  0.00    +0.255 HD
ENDBRANCH  49  50
ENDBRANCH  48  49
ENDBRANCH  47  48
ENDBRANCH  44  47
ENDBRANCH  40  44
ENDBRANCH  39  41
BRANCH  39  59
ATOM     59  CB  GLU A   2      58.289  25.559   7.242  0.00  0.00    +0.041 C 
BRANCH  59  60
ATOM     60  CG  GLU A   2      58.476  24.051   7.405  0.00  0.00    +0.116 C 
BRANCH  60  61
ATOM     61  CD  GLU A   2      58.686  23.342   6.080  0.00  0.00    +0.365 C 
ATOM     62  OE2 GLU A   2      59.841  22.949   5.795  0.00  0.00    -0.246 OA
ATOM     63  OE1 GLU A   2      57.702  23.184   5.325  0.00  0.00    -0.246 OA
ENDBRANCH  60  61
ENDBRANCH  59  60
ENDBRANCH  39  59
ENDBRANCH  35  39
ENDBRANCH   1  36
BRANCH   1  64
ATOM     64  CB  THR A   3      59.071  30.799   8.428  0.00  0.00    +0.137 C 
ATOM     65  CG2 THR A   3      58.985  32.321   8.220  0.00  0.00    +0.034 C 
BRANCH  64  66
ATOM     66  OG1 THR A   3      57.995  30.392   9.279  0.00  0.00    -0.382 OA
ATOM     67  HG1 THR A   3      58.058  29.418   9.445  0.00  0.00    +0.210 HD
ENDBRANCH  64  66
ENDBRANCH   1  64
TORSDOF 29
REMARK  Name = ../refined-set-2016/4pge/4pge_pocket.pdb
REMARK  355 active torsions:
REMARK  status: ('A' for Active; 'I' for Inactive)
REMARK    1  A    between atoms: _1  and  _3
REMARK    2  A    between atoms: _3  and  _4
REMARK    3  A    between atoms: _3  and  _6
REMARK    4  A    between atoms: _6  and  _7
REMARK    5  A    between atoms: _10  and  _12
REMARK    6  A    between atoms: _12  and  _13
REMARK    7  A    between atoms: _12  and  _15
REMARK    8  A    between atoms: _15  and  _16
REMARK    9  A    between atoms: _16  and  _17
REMARK   10  A    between atoms: _17  and  _18
REMARK   11  A    between atoms: _27  and  _29
REMARK   12  A    between atoms: _29  and  _30
REMARK   13  A    between atoms: _29  and  _32
REMARK   14  A    between atoms: _32  and  _33
REMARK   15  A    between atoms: _38  and  _39
REMARK   16  A    between atoms: _41  and  _43
REMARK   17  A    between atoms: _43  and  _44
REMARK   18  A    between atoms: _43  and  _46
REMARK   19  A    between atoms: _46  and  _47
REMARK   20  A    between atoms: _53  and  _55
REMARK   21  A    between atoms: _55  and  _56
REMARK   22  A    between atoms: _55  and  _58
REMARK   23  A    between atoms: _61  and  _63
REMARK   24  A    between atoms: _63  and  _64
REMARK   25  A    between atoms: _63  and  _66
REMARK   26  A    between atoms: _66  and  _67
REMARK   27  A    between atoms: _70  and  _72
REMARK   28  A    between atoms: _72  and  _73
REMARK   29  A    between atoms: _76  and  _78
REMARK   30  A    between atoms: _78  and  _79
REMARK   31  A    between atoms: _78  and  _81
REMARK   32  A    between atoms: _81  and  _82
REMARK   33  A    between atoms: _87  and  _88
REMARK   34  A    between atoms: _90  and  _92
REMARK   35  A    between atoms: _92  and  _93
REMARK   36  A    between atoms: _92  and  _95
REMARK   37  A    between atoms: _95  and  _96
REMARK   38  A    between atoms: _96  and  _97
REMARK   39  A    between atoms: _99  and  _101
REMARK   40  A    between atoms: _101  and  _102
REMARK   41  A    between atoms: _101  and  _104
REMARK   42  A    between atoms: _104  and  _105
REMARK   43  A    between atoms: _105  and  _106
REMARK   44  A    between atoms: _109  and  _111
REMARK   45  A    between atoms: _111  and  _112
REMARK   46  A    between atoms: _111  and  _114
REMARK   47  A    between atoms: _117  and  _119
REMARK   48  A    between atoms: _119  and  _120
REMARK   49  A    between atoms: _122  and  _124
REMARK   50  A    between atoms: _124  and  _125
REMARK   51  A    between atoms: _124  and  _127
REMARK   52  A    between atoms: _130  and  _132
REMARK   53  A    between atoms: _132  and  _133
REMARK   54  A    between atoms: _132  and  _135
REMARK   55  A    between atoms: _135  and  _136
REMARK   56  A    between atoms: _142  and  _144
REMARK   57  A    between atoms: _144  and  _145
REMARK   58  A    between atoms: _144  and  _147
REMARK   59  A    between atoms: _150  and  _152
REMARK   60  A    between atoms: _152  and  _153
REMARK   61  A    between atoms: _152  and  _155
REMARK   62  A    between atoms: _155  and  _156
REMARK   63  A    between atoms: _161  and  _162
REMARK   64  A    between atoms: _164  and  _166
REMARK   65  A    between atoms: _166  and  _167
REMARK   66  A    between atoms: _166  and  _169
REMARK   67  A    between atoms: _169  and  _170
REMARK   68  A    between atoms: _170  and  _171
REMARK   69  A    between atoms: _173  and  _175
REMARK   70  A    between atoms: _175  and  _176
REMARK   71  A    between atoms: _175  and  _178
REMARK   72  A    between atoms: _178  and  _179
REMARK   73  A    between atoms: _179  and  _180
REMARK   74  A    between atoms: _183  and  _185
REMARK   75  A    between atoms: _185  and  _186
REMARK   76  A    between atoms: _185  and  _188
REMARK   77  A    between atoms: _188  and  _189
REMARK   78  A    between atoms: _189  and  _190
REMARK   79  A    between atoms: _193  and  _195
REMARK   80  A    between atoms: _195  and  _196
REMARK   81  A    between atoms: _195  and  _198
REMARK   82  A    between atoms: _198  and  _199
REMARK   83  A    between atoms: _204  and  _205
REMARK   84  A    between atoms: _207  and  _209
REMARK   85  A    between atoms: _209  and  _210
REMARK   86  A    between atoms: _209  and  _212
REMARK   87  A    between atoms: _212  and  _213
REMARK   88  A    between atoms: _213  and  _214
REMARK   89  A    between atoms: _214  and  _215
REMARK   90  A    between atoms: _224  and  _226
REMARK   91  A    between atoms: _226  and  _227
REMARK   92  A    between atoms: _226  and  _229
REMARK   93  A    between atoms: _229  and  _230
REMARK   94  A    between atoms: _230  and  _231
REMARK   95  A    between atoms: _234  and  _236
REMARK   96  A    between atoms: _236  and  _237
REMARK   97  A    between atoms: _236  and  _239
REMARK   98  A    between atoms: _239  and  _240
REMARK   99  A    between atoms: _243  and  _245
REMARK  100  A    between atoms: _245  and  _246
REMARK  101  A    between atoms: _245  and  _248
REMARK  102  A    between atoms: _248  and  _249
REMARK  103  A    between atoms: _249  and  _250
REMARK  104  A    between atoms: _255  and  _257
REMARK  105  A    between atoms: _257  and  _258
REMARK  106  A    between atoms: _257  and  _260
REMARK  107  A    between atoms: _260  and  _261
REMARK  108  A    between atoms: _261  and  _262
REMARK  109  A    between atoms: _262  and  _263
REMARK  110  A    between atoms: _263  and  _264
REMARK  111  A    between atoms: _268  and  _270
REMARK  112  A    between atoms: _270  and  _271
REMARK  113  A    between atoms: _274  and  _276
REMARK  114  A    between atoms: _276  and  _277
REMARK  115  A    between atoms: _279  and  _281
REMARK  116  A    between atoms: _281  and  _282
REMARK  117  A    between atoms: _281  and  _284
REMARK  118  A    between atoms: _284  and  _285
REMARK  119  A    between atoms: _290  and  _292
REMARK  120  A    between atoms: _292  and  _293
REMARK  121  A    between atoms: _292  and  _295
REMARK  122  A    between atoms: _295  and  _296
REMARK  123  A    between atoms: _296  and  _297
REMARK  124  A    between atoms: _300  and  _302
REMARK  125  A    between atoms: _302  and  _303
REMARK  126  A    between atoms: _302  and  _305
REMARK  127  A    between atoms: _305  and  _306
REMARK  128  A    between atoms: _306  and  _307
REMARK  129  A    between atoms: _312  and  _314
REMARK  130  A    between atoms: _314  and  _315
REMARK  131  A    between atoms: _314  and  _317
REMARK  132  A    between atoms: _317  and  _318
REMARK  133  A    between atoms: _320  and  _322
REMARK  134  A    between atoms: _322  and  _323
REMARK  135  A    between atoms: _322  and  _325
REMARK  136  A    between atoms: _325  and  _326
REMARK  137  A    between atoms: _332  and  _334
REMARK  138  A    between atoms: _334  and  _335
REMARK  139  A    between atoms: _334  and  _337
REMARK  140  A    between atoms: _340  and  _342
REMARK  141  A    between atoms: _342  and  _343
REMARK  142  A    between atoms: _342  and  _345
REMARK  143  A    between atoms: _345  and  _346
REMARK  144  A    between atoms: _349  and  _351
REMARK  145  A    between atoms: _351  and  _352
REMARK  146  A    between atoms: _351  and  _354
REMARK  147  A    between atoms: _354  and  _355
REMARK  148  A    between atoms: _358  and  _360
REMARK  149  A    between atoms: _360  and  _361
REMARK  150  A    between atoms: _360  and  _363
REMARK  151  A    between atoms: _363  and  _364
REMARK  152  A    between atoms: _367  and  _369
REMARK  153  A    between atoms: _369  and  _370
REMARK  154  A    between atoms: _369  and  _372
REMARK  155  A    between atoms: _372  and  _373
REMARK  156  A    between atoms: _376  and  _378
REMARK  157  A    between atoms: _378  and  _379
REMARK  158  A    between atoms: _378  and  _381
REMARK  159  A    between atoms: _381  and  _382
REMARK  160  A    between atoms: _387  and  _388
REMARK  161  A    between atoms: _390  and  _392
REMARK  162  A    between atoms: _392  and  _393
REMARK  163  A    between atoms: _392  and  _395
REMARK  164  A    between atoms: _395  and  _396
REMARK  165  A    between atoms: _401  and  _402
REMARK  166  A    between atoms: _404  and  _406
REMARK  167  A    between atoms: _406  and  _407
REMARK  168  A    between atoms: _406  and  _409
REMARK  169  A    between atoms: _409  and  _410
REMARK  170  A    between atoms: _413  and  _415
REMARK  171  A    between atoms: _415  and  _416
REMARK  172  A    between atoms: _415  and  _418
REMARK  173  A    between atoms: _418  and  _419
REMARK  174  A    between atoms: _422  and  _424
REMARK  175  A    between atoms: _424  and  _425
REMARK  176  A    between atoms: _424  and  _427
REMARK  177  A    between atoms: _427  and  _428
REMARK  178  A    between atoms: _428  and  _429
REMARK  179  A    between atoms: _434  and  _436
REMARK  180  A    between atoms: _436  and  _437
REMARK  181  A    between atoms: _436  and  _439
REMARK  182  A    between atoms: _442  and  _444
REMARK  183  A    between atoms: _444  and  _445
REMARK  184  A    between atoms: _444  and  _447
REMARK  185  A    between atoms: _447  and  _448
REMARK  186  A    between atoms: _451  and  _453
REMARK  187  A    between atoms: _453  and  _454
REMARK  188  A    between atoms: _453  and  _456
REMARK  189  A    between atoms: _456  and  _457
REMARK  190  A    between atoms: _459  and  _461
REMARK  191  A    between atoms: _461  and  _462
REMARK  192  A    between atoms: _464  and  _466
REMARK  193  A    between atoms: _466  and  _467
REMARK  194  A    between atoms: _466  and  _469
REMARK  195  A    between atoms: _469  and  _470
REMARK  196  A    between atoms: _470  and  _802
REMARK  197  A    between atoms: _471  and  _473
REMARK  198  A    between atoms: _473  and  _474
REMARK  199  A    between atoms: _473  and  _476
REMARK  200  A    between atoms: _476  and  _477
REMARK  201  A    between atoms: _482  and  _483
REMARK  202  A    between atoms: _485  and  _487
REMARK  203  A    between atoms: _487  and  _488
REMARK  204  A    between atoms: _487  and  _490
REMARK  205  A    between atoms: _490  and  _491
REMARK  206  A    between atoms: _491  and  _492
REMARK  207  A    between atoms: _497  and  _499
REMARK  208  A    between atoms: _499  and  _500
REMARK  209  A    between atoms: _499  and  _502
REMARK  210  A    between atoms: _502  and  _503
REMARK  211  A    between atoms: _503  and  _504
REMARK  212  A    between atoms: _509  and  _511
REMARK  213  A    between atoms: _511  and  _512
REMARK  214  A    between atoms: _511  and  _514
REMARK  215  A    between atoms: _514  and  _515
REMARK  216  A    between atoms: _520  and  _521
REMARK  217  A    between atoms: _523  and  _525
REMARK  218  A    between atoms: _525  and  _526
REMARK  219  A    between atoms: _529  and  _531
REMARK  220  A    between atoms: _531  and  _532
REMARK  221  A    between atoms: _531  and  _534
REMARK  222  A    between atoms: _534  and  _535
REMARK  223  A    between atoms: _540  and  _541
REMARK  224  A    between atoms: _543  and  _545
REMARK  225  A    between atoms: _545  and  _546
REMARK  226  A    between atoms: _545  and  _548
REMARK  227  A    between atoms: _548  and  _549
REMARK  228  A    between atoms: _552  and  _554
REMARK  229  A    between atoms: _554  and  _555
REMARK  230  A    between atoms: _554  and  _557
REMARK  231  A    between atoms: _559  and  _561
REMARK  232  A    between atoms: _561  and  _562
REMARK  233  A    between atoms: _561  and  _564
REMARK  234  A    between atoms: _564  and  _565
REMARK  235  A    between atoms: _568  and  _570
REMARK  236  A    between atoms: _570  and  _571
REMARK  237  A    between atoms: _570  and  _573
REMARK  238  A    between atoms: _573  and  _574
REMARK  239  A    between atoms: _579  and  _580
REMARK  240  A    between atoms: _582  and  _584
REMARK  241  A    between atoms: _584  and  _585
REMARK  242  A    between atoms: _584  and  _587
REMARK  243  A    between atoms: _587  and  _588
REMARK  244  A    between atoms: _591  and  _593
REMARK  245  A    between atoms: _593  and  _594
REMARK  246  A    between atoms: _593  and  _596
REMARK  247  A    between atoms: _596  and  _597
REMARK  248  A    between atoms: _607  and  _609
REMARK  249  A    between atoms: _609  and  _610
REMARK  250  A    between atoms: _613  and  _615
REMARK  251  A    between atoms: _615  and  _616
REMARK  252  A    between atoms: _619  and  _621
REMARK  253  A    between atoms: _621  and  _622
REMARK  254  A    between atoms: _621  and  _624
REMARK  255  A    between atoms: _624  and  _625
REMARK  256  A    between atoms: _628  and  _630
REMARK  257  A    between atoms: _630  and  _631
REMARK  258  A    between atoms: _630  and  _633
REMARK  259  A    between atoms: _633  and  _634
REMARK  260  A    between atoms: _637  and  _639
REMARK  261  A    between atoms: _639  and  _640
REMARK  262  A    between atoms: _639  and  _642
REMARK  263  A    between atoms: _642  and  _643
REMARK  264  A    between atoms: _646  and  _648
REMARK  265  A    between atoms: _648  and  _649
REMARK  266  A    between atoms: _648  and  _651
REMARK  267  A    between atoms: _651  and  _652
REMARK  268  A    between atoms: _652  and  _653
REMARK  269  A    between atoms: _653  and  _654
REMARK  270  A    between atoms: _654  and  _655
REMARK  271  A    between atoms: _659  and  _661
REMARK  272  A    between atoms: _661  and  _662
REMARK  273  A    between atoms: _661  and  _664
REMARK  274  A    between atoms: _664  and  _665
REMARK  275  A    between atoms: _670  and  _672
REMARK  276  A    between atoms: _672  and  _673
REMARK  277  A    between atoms: _672  and  _675
REMARK  278  A    between atoms: _675  and  _676
REMARK  279  A    between atoms: _676  and  _677
REMARK  280  A    between atoms: _677  and  _678
REMARK  281  A    between atoms: _678  and  _679
REMARK  282  A    between atoms: _683  and  _685
REMARK  283  A    between atoms: _685  and  _686
REMARK  284  A    between atoms: _685  and  _688
REMARK  285  A    between atoms: _688  and  _689
REMARK  286  A    between atoms: _699  and  _701
REMARK  287  A    between atoms: _701  and  _702
REMARK  288  A    between atoms: _701  and  _704
REMARK  289  A    between atoms: _704  and  _705
REMARK  290  A    between atoms: _705  and  _706
REMARK  291  A    between atoms: _711  and  _713
REMARK  292  A    between atoms: _713  and  _714
REMARK  293  A    between atoms: _717  and  _719
REMARK  294  A    between atoms: _719  and  _720
REMARK  295  A    between atoms: _722  and  _724
REMARK  296  A    between atoms: _724  and  _725
REMARK  297  A    between atoms: _724  and  _727
REMARK  298  A    between atoms: _727  and  _728
REMARK  299  A    between atoms: _728  and  _729
REMARK  300  A    between atoms: _732  and  _734
REMARK  301  A    between atoms: _734  and  _735
REMARK  302  A    between atoms: _738  and  _740
REMARK  303  A    between atoms: _740  and  _741
REMARK  304  A    between atoms: _740  and  _743
REMARK  305  A    between atoms: _743  and  _744
REMARK  306  A    between atoms: _744  and  _745
REMARK  307  A    between atoms: _745  and  _746
REMARK  308  A    between atoms: _755  and  _757
REMARK  309  A    between atoms: _757  and  _758
REMARK  310  A    between atoms: _757  and  _760
REMARK  311  A    between atoms: _760  and  _761
REMARK  312  A    between atoms: _764  and  _766
REMARK  313  A    between atoms: _766  and  _767
REMARK  314  A    between atoms: _766  and  _769
REMARK  315  A    between atoms: _769  and  _770
REMARK  316  A    between atoms: _775  and  _776
REMARK  317  A    between atoms: _778  and  _780
REMARK  318  A    between atoms: _780  and  _781
REMARK  319  A    between atoms: _780  and  _783
REMARK  320  A    between atoms: _783  and  _784
REMARK  321  A    between atoms: _787  and  _789
REMARK  322  A    between atoms: _789  and  _790
REMARK  323  A    between atoms: _789  and  _792
REMARK  324  A    between atoms: _792  and  _793
REMARK  325  A    between atoms: _796  and  _798
REMARK  326  A    between atoms: _798  and  _799
REMARK  327  A    between atoms: _798  and  _801
REMARK  328  A    between atoms: _801  and  _802
REMARK  329  A    between atoms: _803  and  _805
REMARK  330  A    between atoms: _805  and  _806
REMARK  331  A    between atoms: _805  and  _808
REMARK  332  A    between atoms: _811  and  _813
REMARK  333  A    between atoms: _813  and  _814
REMARK  334  A    between atoms: _813  and  _816
REMARK  335  A    between atoms: _816  and  _817
REMARK  336  A    between atoms: _817  and  _818
REMARK  337  A    between atoms: _821  and  _823
REMARK  338  A    between atoms: _823  and  _824
REMARK  339  A    between atoms: _823  and  _826
REMARK  340  A    between atoms: _826  and  _827
REMARK  341  A    between atoms: _837  and  _839
REMARK  342  A    between atoms: _839  and  _840
REMARK  343  A    between atoms: _839  and  _842
REMARK  344  A    between atoms: _842  and  _843
REMARK  345  A    between atoms: _846  and  _848
REMARK  346  A    between atoms: _848  and  _849
REMARK  347  A    between atoms: _848  and  _851
REMARK  348  A    between atoms: _851  and  _852
REMARK  349  A    between atoms: _852  and  _853
REMARK  350  A    between atoms: _853  and  _854
REMARK  351  A    between atoms: _863  and  _865
REMARK  352  A    between atoms: _865  and  _866
REMARK  353  A    between atoms: _865  and  _868
REMARK  354  A    between atoms: _868  and  _869
REMARK  355  A    between atoms: _874  and  _875
REMARK                            x       y       z     vdW  Elec       q    Type
REMARK                         _______ _______ _______ _____ _____    ______ ____
ROOT
ATOM      1  CA  GLN A   4      58.413  36.217  -4.052  0.00  0.00    +0.149 C 
ENDROOT
BRANCH   1   2
ATOM      2  C   GLN A   4      58.372  35.655  -5.473  0.00  0.00    +0.241 C 
ATOM      3  N   SER A   5      58.596  34.350  -5.627  0.00  0.00    -0.295 N 
ATOM      4  H   SER A   5      58.802  33.764  -4.793  0.00  0.00    +0.150 HD
ATOM      5  O   GLN A   4      58.120  36.396  -6.414  0.00  0.00    -0.273 OA
BRANCH   3   6
ATOM      6  CA  SER A   5      58.556  33.732  -6.949  0.00  0.00    +0.178 C 
BRANCH   6   7
ATOM      7  C   SER A   5      57.171  33.901  -7.601  0.00  0.00    +0.243 C 
ATOM      8  N   PHE A   6      56.102  33.725  -6.827  0.00  0.00    -0.298 N 
ATOM      9  H   PHE A   6      56.227  33.471  -5.826  0.00  0.00    +0.150 HD
ATOM     10  O   SER A   5      57.082  34.208  -8.794  0.00  0.00    -0.273 OA
BRANCH   8  11
ATOM     11  CA  PHE A   6      54.747  33.887  -7.374  0.00  0.00    +0.141 C 
BRANCH  11  12
ATOM     12  C   PHE A   6      54.395  35.349  -7.691  0.00  0.00    +0.227 C 
ATOM     13  O   PHE A   6      53.693  35.612  -8.672  0.00  0.00    -0.286 OA
ENDBRANCH  11  12
BRANCH  11  14
ATOM     14  CB  PHE A   6      53.696  33.201  -6.500  0.00  0.00    +0.054 C 
BRANCH  14  15
ATOM     15  CG  PHE A   6      53.768  31.695  -6.564  0.00  0.00    -0.020 A 
ATOM     16  CD2 PHE A   6      54.267  30.959  -5.500  0.00  0.00    -0.004 A 
ATOM     17  CE2 PHE A   6      54.356  29.578  -5.569  0.00  0.00    -0.000 A 
ATOM     18  CZ  PHE A   6      53.958  28.917  -6.713  0.00  0.00    -0.000 A 
ATOM     19  CE1 PHE A   6      53.469  29.637  -7.790  0.00  0.00    -0.000 A 
ATOM     20  CD1 PHE A   6      53.379  31.021  -7.712  0.00  0.00    -0.004 A 
ENDBRANCH  14  15
ENDBRANCH  11  14
ENDBRANCH   8  11
ENDBRANCH   6   7
BRANCH   6  21
ATOM     21  CB  SER A   5      58.967  32.254  -6.900  0.00  0.00    +0.166 C 
BRANCH  21  22
ATOM     22  OG  SER A   5      57.960  31.458  -6.297  0.00  0.00    -0.380 OA
ATOM     23  H   SER A   5      57.803  31.772  -5.371  0.00  0.00    +0.211 HD
ENDBRANCH  21  22
ENDBRANCH   6  21
ENDBRANCH   3   6
ENDBRANCH   1   2
BRANCH   1  25
ATOM     24  C   GLU A   3      56.471  35.038  -3.164  0.00  0.00    +0.241 C 
ATOM     25  N   GLN A   4      57.768  35.332  -3.078  0.00  0.00    -0.297 N 
ATOM     26  H   GLN A   4      58.333  34.926  -2.305  0.00  0.00    +0.150 HD
ATOM     27  O   GLU A   3      55.756  35.453  -4.072  0.00  0.00    -0.273 OA
BRANCH  24  28
ATOM     28  CA  GLU A   3      55.887  34.117  -2.086  0.00  0.00    +0.149 C 
BRANCH  28  30
ATOM     29  C   ASN A   2      57.089  32.174  -2.951  0.00  0.00    +0.241 C 
ATOM     30  N   GLU A   3      56.693  32.912  -1.918  0.00  0.00    -0.297 N 
ATOM     31  H   GLU A   3      56.967  32.621  -0.958  0.00  0.00    +0.150 HD
ATOM     32  O   ASN A   2      56.762  32.408  -4.114  0.00  0.00    -0.273 OA
BRANCH  29  33
ATOM     33  CA  ASN A   2      57.996  30.998  -2.628  0.00  0.00    +0.158 C 
BRANCH  33  35
ATOM     34  C   GLY A   1      59.912  32.373  -2.007  0.00  0.00    +0.240 C 
ATOM     35  N   ASN A   2      59.064  31.387  -1.717  0.00  0.00    -0.297 N 
ATOM     36  H   ASN A   2      59.168  30.881  -0.814  0.00  0.00    +0.150 HD
ATOM     37  O   GLY A   1      59.874  33.004  -3.068  0.00  0.00    -0.274 OA
BRANCH  34  38
ATOM     38  CA  GLY A   1      60.950  32.698  -0.945  0.00  0.00    +0.169 C 
BRANCH  38  39
ATOM     39  N   GLY A   1      60.343  32.846   0.380  0.00  0.00    -0.236 NA
ATOM     40  H   GLY A   1      60.584  32.163   1.126  0.00  0.00    +0.142 HD
ENDBRANCH  38  39
ENDBRANCH  34  38
ENDBRANCH  33  35
BRANCH  33  41
ATOM     41  CB  ASN A   2      57.148  29.871  -2.048  0.00  0.00    +0.114 C 
BRANCH  41  42
ATOM     42  CG  ASN A   2      57.936  28.598  -1.806  0.00  0.00    +0.222 C 
ATOM     43  ND2 ASN A   2      57.404  27.745  -0.940  0.00  0.00    -0.329 N 
ATOM     44 HD21 ASN A   2      56.499  27.969  -0.478  0.00  0.00    +0.145 HD
ATOM     45 HD22 ASN A   2      57.892  26.852  -0.723  0.00  0.00    +0.145 HD
ATOM     46  OD1 ASN A   2      59.006  28.379  -2.380  0.00  0.00    -0.275 OA
ENDBRANCH  41  42
ENDBRANCH  33  41
ENDBRANCH  29  33
ENDBRANCH  28  30
BRANCH  28  47
ATOM     47  CB  GLU A   3      55.757  34.865  -0.755  0.00  0.00    +0.041 C 
BRANCH  47  48
ATOM     48  CG  GLU A   3      54.964  36.164  -0.830  0.00  0.00    +0.116 C 
BRANCH  48  49
ATOM     49  CD  GLU A   3      54.713  36.794   0.536  0.00  0.00    +0.365 C 
ATOM     50  OE2 GLU A   3      55.340  36.373   1.530  0.00  0.00    -0.246 OA
ATOM     51  OE1 GLU A   3      53.878  37.715   0.617  0.00  0.00    -0.246 OA
ENDBRANCH  48  49
ENDBRANCH  47  48
ENDBRANCH  28  47
ENDBRANCH  24  28
ENDBRANCH   1  25
BRANCH   1  52
ATOM     52  CB  GLN A   4      59.864  36.544  -3.653  0.00  0.00    +0.039 C 
BRANCH  52  53
ATOM     53  CG  GLN A   4      60.018  37.272  -2.321  0.00  0.00    +0.087 C 
BRANCH  53  54
ATOM     54  CD  GLN A   4      59.197  38.551  -2.229  0.00  0.00    +0.219 C 
ATOM     55  OE1 GLN A   4      58.161  38.588  -1.566  0.00  0.00    -0.275 OA
ATOM     56  NE2 GLN A   4      59.653  39.602  -2.899  0.00  0.00    -0.329 N 
ATOM     57 HE21 GLN A   4      59.130  40.500  -2.876  0.00  0.00    +0.145 HD
ATOM     58 HE22 GLN A   4      60.534  39.527  -3.447  0.00  0.00    +0.145 HD
ENDBRANCH  53  54
ENDBRANCH  52  53
ENDBRANCH   1  52
TORSDOF 24
REMARK  Name = ../refined-set-2016/4pge/4pge_pocket.pdb
REMARK  355 active torsions:
REMARK  status: ('A' for Active; 'I' for Inactive)
REMARK    1  A    between atoms: _1  and  _3
REMARK    2  A    between atoms: _3  and  _4
REMARK    3  A    between atoms: _3  and  _6
REMARK    4  A    between atoms: _6  and  _7
REMARK    5  A    between atoms: _10  and  _12
REMARK    6  A    between atoms: _12  and  _13
REMARK    7  A    between atoms: _12  and  _15
REMARK    8  A    between atoms: _15  and  _16
REMARK    9  A    between atoms: _16  and  _17
REMARK   10  A    between atoms: _17  and  _18
REMARK   11  A    between atoms: _27  and  _29
REMARK   12  A    between atoms: _29  and  _30
REMARK   13  A    between atoms: _29  and  _32
REMARK   14  A    between atoms: _32  and  _33
REMARK   15  A    between atoms: _38  and  _39
REMARK   16  A    between atoms: _41  and  _43
REMARK   17  A    between atoms: _43  and  _44
REMARK   18  A    between atoms: _43  and  _46
REMARK   19  A    between atoms: _46  and  _47
REMARK   20  A    between atoms: _53  and  _55
REMARK   21  A    between atoms: _55  and  _56
REMARK   22  A    between atoms: _55  and  _58
REMARK   23  A    between atoms: _61  and  _63
REMARK   24  A    between atoms: _63  and  _64
REMARK   25  A    between atoms: _63  and  _66
REMARK   26  A    between atoms: _66  and  _67
REMARK   27  A    between atoms: _70  and  _72
REMARK   28  A    between atoms: _72  and  _73
REMARK   29  A    between atoms: _76  and  _78
REMARK   30  A    between atoms: _78  and  _79
REMARK   31  A    between atoms: _78  and  _81
REMARK   32  A    between atoms: _81  and  _82
REMARK   33  A    between atoms: _87  and  _88
REMARK   34  A    between atoms: _90  and  _92
REMARK   35  A    between atoms: _92  and  _93
REMARK   36  A    between atoms: _92  and  _95
REMARK   37  A    between atoms: _95  and  _96
REMARK   38  A    between atoms: _96  and  _97
REMARK   39  A    between atoms: _99  and  _101
REMARK   40  A    between atoms: _101  and  _102
REMARK   41  A    between atoms: _101  and  _104
REMARK   42  A    between atoms: _104  and  _105
REMARK   43  A    between atoms: _105  and  _106
REMARK   44  A    between atoms: _109  and  _111
REMARK   45  A    between atoms: _111  and  _112
REMARK   46  A    between atoms: _111  and  _114
REMARK   47  A    between atoms: _117  and  _119
REMARK   48  A    between atoms: _119  and  _120
REMARK   49  A    between atoms: _122  and  _124
REMARK   50  A    between atoms: _124  and  _125
REMARK   51  A    between atoms: _124  and  _127
REMARK   52  A    between atoms: _130  and  _132
REMARK   53  A    between atoms: _132  and  _133
REMARK   54  A    between atoms: _132  and  _135
REMARK   55  A    between atoms: _135  and  _136
REMARK   56  A    between atoms: _142  and  _144
REMARK   57  A    between atoms: _144  and  _145
REMARK   58  A    between atoms: _144  and  _147
REMARK   59  A    between atoms: _150  and  _152
REMARK   60  A    between atoms: _152  and  _153
REMARK   61  A    between atoms: _152  and  _155
REMARK   62  A    between atoms: _155  and  _156
REMARK   63  A    between atoms: _161  and  _162
REMARK   64  A    between atoms: _164  and  _166
REMARK   65  A    between atoms: _166  and  _167
REMARK   66  A    between atoms: _166  and  _169
REMARK   67  A    between atoms: _169  and  _170
REMARK   68  A    between atoms: _170  and  _171
REMARK   69  A    between atoms: _173  and  _175
REMARK   70  A    between atoms: _175  and  _176
REMARK   71  A    between atoms: _175  and  _178
REMARK   72  A    between atoms: _178  and  _179
REMARK   73  A    between atoms: _179  and  _180
REMARK   74  A    between atoms: _183  and  _185
REMARK   75  A    between atoms: _185  and  _186
REMARK   76  A    between atoms: _185  and  _188
REMARK   77  A    between atoms: _188  and  _189
REMARK   78  A    between atoms: _189  and  _190
REMARK   79  A    between atoms: _193  and  _195
REMARK   80  A    between atoms: _195  and  _196
REMARK   81  A    between atoms: _195  and  _198
REMARK   82  A    between atoms: _198  and  _199
REMARK   83  A    between atoms: _204  and  _205
REMARK   84  A    between atoms: _207  and  _209
REMARK   85  A    between atoms: _209  and  _210
REMARK   86  A    between atoms: _209  and  _212
REMARK   87  A    between atoms: _212  and  _213
REMARK   88  A    between atoms: _213  and  _214
REMARK   89  A    between atoms: _214  and  _215
REMARK   90  A    between atoms: _224  and  _226
REMARK   91  A    between atoms: _226  and  _227
REMARK   92  A    between atoms: _226  and  _229
REMARK   93  A    between atoms: _229  and  _230
REMARK   94  A    between atoms: _230  and  _231
REMARK   95  A    between atoms: _234  and  _236
REMARK   96  A    between atoms: _236  and  _237
REMARK   97  A    between atoms: _236  and  _239
REMARK   98  A    between atoms: _239  and  _240
REMARK   99  A    between atoms: _243  and  _245
REMARK  100  A    between atoms: _245  and  _246
REMARK  101  A    between atoms: _245  and  _248
REMARK  102  A    between atoms: _248  and  _249
REMARK  103  A    between atoms: _249  and  _250
REMARK  104  A    between atoms: _255  and  _257
REMARK  105  A    between atoms: _257  and  _258
REMARK  106  A    between atoms: _257  and  _260
REMARK  107  A    between atoms: _260  and  _261
REMARK  108  A    between atoms: _261  and  _262
REMARK  109  A    between atoms: _262  and  _263
REMARK  110  A    between atoms: _263  and  _264
REMARK  111  A    between atoms: _268  and  _270
REMARK  112  A    between atoms: _270  and  _271
REMARK  113  A    between atoms: _274  and  _276
REMARK  114  A    between atoms: _276  and  _277
REMARK  115  A    between atoms: _279  and  _281
REMARK  116  A    between atoms: _281  and  _282
REMARK  117  A    between atoms: _281  and  _284
REMARK  118  A    between atoms: _284  and  _285
REMARK  119  A    between atoms: _290  and  _292
REMARK  120  A    between atoms: _292  and  _293
REMARK  121  A    between atoms: _292  and  _295
REMARK  122  A    between atoms: _295  and  _296
REMARK  123  A    between atoms: _296  and  _297
REMARK  124  A    between atoms: _300  and  _302
REMARK  125  A    between atoms: _302  and  _303
REMARK  126  A    between atoms: _302  and  _305
REMARK  127  A    between atoms: _305  and  _306
REMARK  128  A    between atoms: _306  and  _307
REMARK  129  A    between atoms: _312  and  _314
REMARK  130  A    between atoms: _314  and  _315
REMARK  131  A    between atoms: _314  and  _317
REMARK  132  A    between atoms: _317  and  _318
REMARK  133  A    between atoms: _320  and  _322
REMARK  134  A    between atoms: _322  and  _323
REMARK  135  A    between atoms: _322  and  _325
REMARK  136  A    between atoms: _325  and  _326
REMARK  137  A    between atoms: _332  and  _334
REMARK  138  A    between atoms: _334  and  _335
REMARK  139  A    between atoms: _334  and  _337
REMARK  140  A    between atoms: _340  and  _342
REMARK  141  A    between atoms: _342  and  _343
REMARK  142  A    between atoms: _342  and  _345
REMARK  143  A    between atoms: _345  and  _346
REMARK  144  A    between atoms: _349  and  _351
REMARK  145  A    between atoms: _351  and  _352
REMARK  146  A    between atoms: _351  and  _354
REMARK  147  A    between atoms: _354  and  _355
REMARK  148  A    between atoms: _358  and  _360
REMARK  149  A    between atoms: _360  and  _361
REMARK  150  A    between atoms: _360  and  _363
REMARK  151  A    between atoms: _363  and  _364
REMARK  152  A    between atoms: _367  and  _369
REMARK  153  A    between atoms: _369  and  _370
REMARK  154  A    between atoms: _369  and  _372
REMARK  155  A    between atoms: _372  and  _373
REMARK  156  A    between atoms: _376  and  _378
REMARK  157  A    between atoms: _378  and  _379
REMARK  158  A    between atoms: _378  and  _381
REMARK  159  A    between atoms: _381  and  _382
REMARK  160  A    between atoms: _387  and  _388
REMARK  161  A    between atoms: _390  and  _392
REMARK  162  A    between atoms: _392  and  _393
REMARK  163  A    between atoms: _392  and  _395
REMARK  164  A    between atoms: _395  and  _396
REMARK  165  A    between atoms: _401  and  _402
REMARK  166  A    between atoms: _404  and  _406
REMARK  167  A    between atoms: _406  and  _407
REMARK  168  A    between atoms: _406  and  _409
REMARK  169  A    between atoms: _409  and  _410
REMARK  170  A    between atoms: _413  and  _415
REMARK  171  A    between atoms: _415  and  _416
REMARK  172  A    between atoms: _415  and  _418
REMARK  173  A    between atoms: _418  and  _419
REMARK  174  A    between atoms: _422  and  _424
REMARK  175  A    between atoms: _424  and  _425
REMARK  176  A    between atoms: _424  and  _427
REMARK  177  A    between atoms: _427  and  _428
REMARK  178  A    between atoms: _428  and  _429
REMARK  179  A    between atoms: _434  and  _436
REMARK  180  A    between atoms: _436  and  _437
REMARK  181  A    between atoms: _436  and  _439
REMARK  182  A    between atoms: _442  and  _444
REMARK  183  A    between atoms: _444  and  _445
REMARK  184  A    between atoms: _444  and  _447
REMARK  185  A    between atoms: _447  and  _448
REMARK  186  A    between atoms: _451  and  _453
REMARK  187  A    between atoms: _453  and  _454
REMARK  188  A    between atoms: _453  and  _456
REMARK  189  A    between atoms: _456  and  _457
REMARK  190  A    between atoms: _459  and  _461
REMARK  191  A    between atoms: _461  and  _462
REMARK  192  A    between atoms: _464  and  _466
REMARK  193  A    between atoms: _466  and  _467
REMARK  194  A    between atoms: _466  and  _469
REMARK  195  A    between atoms: _469  and  _470
REMARK  196  A    between atoms: _470  and  _802
REMARK  197  A    between atoms: _471  and  _473
REMARK  198  A    between atoms: _473  and  _474
REMARK  199  A    between atoms: _473  and  _476
REMARK  200  A    between atoms: _476  and  _477
REMARK  201  A    between atoms: _482  and  _483
REMARK  202  A    between atoms: _485  and  _487
REMARK  203  A    between atoms: _487  and  _488
REMARK  204  A    between atoms: _487  and  _490
REMARK  205  A    between atoms: _490  and  _491
REMARK  206  A    between atoms: _491  and  _492
REMARK  207  A    between atoms: _497  and  _499
REMARK  208  A    between atoms: _499  and  _500
REMARK  209  A    between atoms: _499  and  _502
REMARK  210  A    between atoms: _502  and  _503
REMARK  211  A    between atoms: _503  and  _504
REMARK  212  A    between atoms: _509  and  _511
REMARK  213  A    between atoms: _511  and  _512
REMARK  214  A    between atoms: _511  and  _514
REMARK  215  A    between atoms: _514  and  _515
REMARK  216  A    between atoms: _520  and  _521
REMARK  217  A    between atoms: _523  and  _525
REMARK  218  A    between atoms: _525  and  _526
REMARK  219  A    between atoms: _529  and  _531
REMARK  220  A    between atoms: _531  and  _532
REMARK  221  A    between atoms: _531  and  _534
REMARK  222  A    between atoms: _534  and  _535
REMARK  223  A    between atoms: _540  and  _541
REMARK  224  A    between atoms: _543  and  _545
REMARK  225  A    between atoms: _545  and  _546
REMARK  226  A    between atoms: _545  and  _548
REMARK  227  A    between atoms: _548  and  _549
REMARK  228  A    between atoms: _552  and  _554
REMARK  229  A    between atoms: _554  and  _555
REMARK  230  A    between atoms: _554  and  _557
REMARK  231  A    between atoms: _559  and  _561
REMARK  232  A    between atoms: _561  and  _562
REMARK  233  A    between atoms: _561  and  _564
REMARK  234  A    between atoms: _564  and  _565
REMARK  235  A    between atoms: _568  and  _570
REMARK  236  A    between atoms: _570  and  _571
REMARK  237  A    between atoms: _570  and  _573
REMARK  238  A    between atoms: _573  and  _574
REMARK  239  A    between atoms: _579  and  _580
REMARK  240  A    between atoms: _582  and  _584
REMARK  241  A    between atoms: _584  and  _585
REMARK  242  A    between atoms: _584  and  _587
REMARK  243  A    between atoms: _587  and  _588
REMARK  244  A    between atoms: _591  and  _593
REMARK  245  A    between atoms: _593  and  _594
REMARK  246  A    between atoms: _593  and  _596
REMARK  247  A    between atoms: _596  and  _597
REMARK  248  A    between atoms: _607  and  _609
REMARK  249  A    between atoms: _609  and  _610
REMARK  250  A    between atoms: _613  and  _615
REMARK  251  A    between atoms: _615  and  _616
REMARK  252  A    between atoms: _619  and  _621
REMARK  253  A    between atoms: _621  and  _622
REMARK  254  A    between atoms: _621  and  _624
REMARK  255  A    between atoms: _624  and  _625
REMARK  256  A    between atoms: _628  and  _630
REMARK  257  A    between atoms: _630  and  _631
REMARK  258  A    between atoms: _630  and  _633
REMARK  259  A    between atoms: _633  and  _634
REMARK  260  A    between atoms: _637  and  _639
REMARK  261  A    between atoms: _639  and  _640
REMARK  262  A    between atoms: _639  and  _642
REMARK  263  A    between atoms: _642  and  _643
REMARK  264  A    between atoms: _646  and  _648
REMARK  265  A    between atoms: _648  and  _649
REMARK  266  A    between atoms: _648  and  _651
REMARK  267  A    between atoms: _651  and  _652
REMARK  268  A    between atoms: _652  and  _653
REMARK  269  A    between atoms: _653  and  _654
REMARK  270  A    between atoms: _654  and  _655
REMARK  271  A    between atoms: _659  and  _661
REMARK  272  A    between atoms: _661  and  _662
REMARK  273  A    between atoms: _661  and  _664
REMARK  274  A    between atoms: _664  and  _665
REMARK  275  A    between atoms: _670  and  _672
REMARK  276  A    between atoms: _672  and  _673
REMARK  277  A    between atoms: _672  and  _675
REMARK  278  A    between atoms: _675  and  _676
REMARK  279  A    between atoms: _676  and  _677
REMARK  280  A    between atoms: _677  and  _678
REMARK  281  A    between atoms: _678  and  _679
REMARK  282  A    between atoms: _683  and  _685
REMARK  283  A    between atoms: _685  and  _686
REMARK  284  A    between atoms: _685  and  _688
REMARK  285  A    between atoms: _688  and  _689
REMARK  286  A    between atoms: _699  and  _701
REMARK  287  A    between atoms: _701  and  _702
REMARK  288  A    between atoms: _701  and  _704
REMARK  289  A    between atoms: _704  and  _705
REMARK  290  A    between atoms: _705  and  _706
REMARK  291  A    between atoms: _711  and  _713
REMARK  292  A    between atoms: _713  and  _714
REMARK  293  A    between atoms: _717  and  _719
REMARK  294  A    between atoms: _719  and  _720
REMARK  295  A    between atoms: _722  and  _724
REMARK  296  A    between atoms: _724  and  _725
REMARK  297  A    between atoms: _724  and  _727
REMARK  298  A    between atoms: _727  and  _728
REMARK  299  A    between atoms: _728  and  _729
REMARK  300  A    between atoms: _732  and  _734
REMARK  301  A    between atoms: _734  and  _735
REMARK  302  A    between atoms: _738  and  _740
REMARK  303  A    between atoms: _740  and  _741
REMARK  304  A    between atoms: _740  and  _743
REMARK  305  A    between atoms: _743  and  _744
REMARK  306  A    between atoms: _744  and  _745
REMARK  307  A    between atoms: _745  and  _746
REMARK  308  A    between atoms: _755  and  _757
REMARK  309  A    between atoms: _757  and  _758
REMARK  310  A    between atoms: _757  and  _760
REMARK  311  A    between atoms: _760  and  _761
REMARK  312  A    between atoms: _764  and  _766
REMARK  313  A    between atoms: _766  and  _767
REMARK  314  A    between atoms: _766  and  _769
REMARK  315  A    between atoms: _769  and  _770
REMARK  316  A    between atoms: _775  and  _776
REMARK  317  A    between atoms: _778  and  _780
REMARK  318  A    between atoms: _780  and  _781
REMARK  319  A    between atoms: _780  and  _783
REMARK  320  A    between atoms: _783  and  _784
REMARK  321  A    between atoms: _787  and  _789
REMARK  322  A    between atoms: _789  and  _790
REMARK  323  A    between atoms: _789  and  _792
REMARK  324  A    between atoms: _792  and  _793
REMARK  325  A    between atoms: _796  and  _798
REMARK  326  A    between atoms: _798  and  _799
REMARK  327  A    between atoms: _798  and  _801
REMARK  328  A    between atoms: _801  and  _802
REMARK  329  A    between atoms: _803  and  _805
REMARK  330  A    between atoms: _805  and  _806
REMARK  331  A    between atoms: _805  and  _808
REMARK  332  A    between atoms: _811  and  _813
REMARK  333  A    between atoms: _813  and  _814
REMARK  334  A    between atoms: _813  and  _816
REMARK  335  A    between atoms: _816  and  _817
REMARK  336  A    between atoms: _817  and  _818
REMARK  337  A    between atoms: _821  and  _823
REMARK  338  A    between atoms: _823  and  _824
REMARK  339  A    between atoms: _823  and  _826
REMARK  340  A    between atoms: _826  and  _827
REMARK  341  A    between atoms: _837  and  _839
REMARK  342  A    between atoms: _839  and  _840
REMARK  343  A    between atoms: _839  and  _842
REMARK  344  A    between atoms: _842  and  _843
REMARK  345  A    between atoms: _846  and  _848
REMARK  346  A    between atoms: _848  and  _849
REMARK  347  A    between atoms: _848  and  _851
REMARK  348  A    between atoms: _851  and  _852
REMARK  349  A    between atoms: _852  and  _853
REMARK  350  A    between atoms: _853  and  _854
REMARK  351  A    between atoms: _863  and  _865
REMARK  352  A    between atoms: _865  and  _866
REMARK  353  A    between atoms: _865  and  _868
REMARK  354  A    between atoms: _868  and  _869
REMARK  355  A    between atoms: _874  and  _875
REMARK                            x       y       z     vdW  Elec       q    Type
REMARK                         _______ _______ _______ _____ _____    ______ ____
ROOT
ATOM      1  CA  ASP A   2      54.969  34.894 -11.936  0.00  0.00    +0.160 C 
ENDROOT
BRANCH   1   3
ATOM      2  C   VAL A   1      56.312  36.847 -11.341  0.00  0.00    +0.238 C 
ATOM      3  N   ASP A   2      55.832  35.642 -11.030  0.00  0.00    -0.297 N 
ATOM      4  H   ASP A   2      56.081  35.223 -10.112  0.00  0.00    +0.150 HD
ATOM      5  O   VAL A   1      56.109  37.398 -12.423  0.00  0.00    -0.274 OA
BRANCH   2   6
ATOM      6  CA  VAL A   1      57.139  37.547 -10.271  0.00  0.00    +0.145 C 
BRANCH   6   7
ATOM      7  CB  VAL A   1      58.578  36.973 -10.261  0.00  0.00    +0.025 C 
ATOM      8  CG2 VAL A   1      59.444  37.723  -9.251  0.00  0.00    +0.002 C 
ATOM      9  CG1 VAL A   1      59.192  37.014 -11.656  0.00  0.00    +0.002 C 
ENDBRANCH   6   7
BRANCH   6  10
ATOM     10  N   VAL A   1      56.494  37.401  -8.970  0.00  0.00    -0.238 NA
ATOM     11  H   VAL A   1      56.964  36.831  -8.238  0.00  0.00    +0.142 HD
ENDBRANCH   6  10
ENDBRANCH   2   6
ENDBRANCH   1   3
BRANCH   1  12
ATOM     12  C   ASP A   2      53.741  35.710 -12.341  0.00  0.00    +0.241 C 
ATOM     13  N   LEU A   3      53.086  36.317 -11.354  0.00  0.00    -0.298 N 
ATOM     14  H   LEU A   3      53.413  36.190 -10.375  0.00  0.00    +0.150 HD
ATOM     15  O   ASP A   2      53.393  35.773 -13.528  0.00  0.00    -0.273 OA
BRANCH  13  16
ATOM     16  CA  LEU A   3      51.913  37.162 -11.614  0.00  0.00    +0.137 C 
BRANCH  16  17
ATOM     17  C   LEU A   3      52.228  38.309 -12.591  0.00  0.00    +0.227 C 
ATOM     18  O   LEU A   3      51.450  38.570 -13.495  0.00  0.00    -0.286 OA
ENDBRANCH  16  17
BRANCH  16  19
ATOM     19  CB  LEU A   3      51.317  37.693 -10.305  0.00  0.00    +0.028 C 
BRANCH  19  20
ATOM     20  CG  LEU A   3      50.610  36.613  -9.472  0.00  0.00    +0.002 C 
ATOM     21  CD2 LEU A   3      50.465  37.050  -8.020  0.00  0.00    +0.000 C 
ATOM     22  CD1 LEU A   3      49.251  36.251 -10.062  0.00  0.00    +0.000 C 
ENDBRANCH  19  20
ENDBRANCH  16  19
ENDBRANCH  13  16
ENDBRANCH   1  12
BRANCH   1  23
ATOM     23  CB  ASP A   2      54.488  33.587 -11.305  0.00  0.00    +0.143 C 
BRANCH  23  24
ATOM     24  CG  ASP A   2      55.604  32.608 -11.039  0.00  0.00    +0.367 C 
ATOM     25  OD2 ASP A   2      55.343  31.663 -10.272  0.00  0.00    -0.246 OA
ATOM     26  OD1 ASP A   2      56.723  32.762 -11.577  0.00  0.00    -0.246 OA
ENDBRANCH  23  24
ENDBRANCH   1  23
TORSDOF 11
REMARK  Name = ../refined-set-2016/4pge/4pge_pocket.pdb
REMARK  355 active torsions:
REMARK  status: ('A' for Active; 'I' for Inactive)
REMARK    1  A    between atoms: _1  and  _3
REMARK    2  A    between atoms: _3  and  _4
REMARK    3  A    between atoms: _3  and  _6
REMARK    4  A    between atoms: _6  and  _7
REMARK    5  A    between atoms: _10  and  _12
REMARK    6  A    between atoms: _12  and  _13
REMARK    7  A    between atoms: _12  and  _15
REMARK    8  A    between atoms: _15  and  _16
REMARK    9  A    between atoms: _16  and  _17
REMARK   10  A    between atoms: _17  and  _18
REMARK   11  A    between atoms: _27  and  _29
REMARK   12  A    between atoms: _29  and  _30
REMARK   13  A    between atoms: _29  and  _32
REMARK   14  A    between atoms: _32  and  _33
REMARK   15  A    between atoms: _38  and  _39
REMARK   16  A    between atoms: _41  and  _43
REMARK   17  A    between atoms: _43  and  _44
REMARK   18  A    between atoms: _43  and  _46
REMARK   19  A    between atoms: _46  and  _47
REMARK   20  A    between atoms: _53  and  _55
REMARK   21  A    between atoms: _55  and  _56
REMARK   22  A    between atoms: _55  and  _58
REMARK   23  A    between atoms: _61  and  _63
REMARK   24  A    between atoms: _63  and  _64
REMARK   25  A    between atoms: _63  and  _66
REMARK   26  A    between atoms: _66  and  _67
REMARK   27  A    between atoms: _70  and  _72
REMARK   28  A    between atoms: _72  and  _73
REMARK   29  A    between atoms: _76  and  _78
REMARK   30  A    between atoms: _78  and  _79
REMARK   31  A    between atoms: _78  and  _81
REMARK   32  A    between atoms: _81  and  _82
REMARK   33  A    between atoms: _87  and  _88
REMARK   34  A    between atoms: _90  and  _92
REMARK   35  A    between atoms: _92  and  _93
REMARK   36  A    between atoms: _92  and  _95
REMARK   37  A    between atoms: _95  and  _96
REMARK   38  A    between atoms: _96  and  _97
REMARK   39  A    between atoms: _99  and  _101
REMARK   40  A    between atoms: _101  and  _102
REMARK   41  A    between atoms: _101  and  _104
REMARK   42  A    between atoms: _104  and  _105
REMARK   43  A    between atoms: _105  and  _106
REMARK   44  A    between atoms: _109  and  _111
REMARK   45  A    between atoms: _111  and  _112
REMARK   46  A    between atoms: _111  and  _114
REMARK   47  A    between atoms: _117  and  _119
REMARK   48  A    between atoms: _119  and  _120
REMARK   49  A    between atoms: _122  and  _124
REMARK   50  A    between atoms: _124  and  _125
REMARK   51  A    between atoms: _124  and  _127
REMARK   52  A    between atoms: _130  and  _132
REMARK   53  A    between atoms: _132  and  _133
REMARK   54  A    between atoms: _132  and  _135
REMARK   55  A    between atoms: _135  and  _136
REMARK   56  A    between atoms: _142  and  _144
REMARK   57  A    between atoms: _144  and  _145
REMARK   58  A    between atoms: _144  and  _147
REMARK   59  A    between atoms: _150  and  _152
REMARK   60  A    between atoms: _152  and  _153
REMARK   61  A    between atoms: _152  and  _155
REMARK   62  A    between atoms: _155  and  _156
REMARK   63  A    between atoms: _161  and  _162
REMARK   64  A    between atoms: _164  and  _166
REMARK   65  A    between atoms: _166  and  _167
REMARK   66  A    between atoms: _166  and  _169
REMARK   67  A    between atoms: _169  and  _170
REMARK   68  A    between atoms: _170  and  _171
REMARK   69  A    between atoms: _173  and  _175
REMARK   70  A    between atoms: _175  and  _176
REMARK   71  A    between atoms: _175  and  _178
REMARK   72  A    between atoms: _178  and  _179
REMARK   73  A    between atoms: _179  and  _180
REMARK   74  A    between atoms: _183  and  _185
REMARK   75  A    between atoms: _185  and  _186
REMARK   76  A    between atoms: _185  and  _188
REMARK   77  A    between atoms: _188  and  _189
REMARK   78  A    between atoms: _189  and  _190
REMARK   79  A    between atoms: _193  and  _195
REMARK   80  A    between atoms: _195  and  _196
REMARK   81  A    between atoms: _195  and  _198
REMARK   82  A    between atoms: _198  and  _199
REMARK   83  A    between atoms: _204  and  _205
REMARK   84  A    between atoms: _207  and  _209
REMARK   85  A    between atoms: _209  and  _210
REMARK   86  A    between atoms: _209  and  _212
REMARK   87  A    between atoms: _212  and  _213
REMARK   88  A    between atoms: _213  and  _214
REMARK   89  A    between atoms: _214  and  _215
REMARK   90  A    between atoms: _224  and  _226
REMARK   91  A    between atoms: _226  and  _227
REMARK   92  A    between atoms: _226  and  _229
REMARK   93  A    between atoms: _229  and  _230
REMARK   94  A    between atoms: _230  and  _231
REMARK   95  A    between atoms: _234  and  _236
REMARK   96  A    between atoms: _236  and  _237
REMARK   97  A    between atoms: _236  and  _239
REMARK   98  A    between atoms: _239  and  _240
REMARK   99  A    between atoms: _243  and  _245
REMARK  100  A    between atoms: _245  and  _246
REMARK  101  A    between atoms: _245  and  _248
REMARK  102  A    between atoms: _248  and  _249
REMARK  103  A    between atoms: _249  and  _250
REMARK  104  A    between atoms: _255  and  _257
REMARK  105  A    between atoms: _257  and  _258
REMARK  106  A    between atoms: _257  and  _260
REMARK  107  A    between atoms: _260  and  _261
REMARK  108  A    between atoms: _261  and  _262
REMARK  109  A    between atoms: _262  and  _263
REMARK  110  A    between atoms: _263  and  _264
REMARK  111  A    between atoms: _268  and  _270
REMARK  112  A    between atoms: _270  and  _271
REMARK  113  A    between atoms: _274  and  _276
REMARK  114  A    between atoms: _276  and  _277
REMARK  115  A    between atoms: _279  and  _281
REMARK  116  A    between atoms: _281  and  _282
REMARK  117  A    between atoms: _281  and  _284
REMARK  118  A    between atoms: _284  and  _285
REMARK  119  A    between atoms: _290  and  _292
REMARK  120  A    between atoms: _292  and  _293
REMARK  121  A    between atoms: _292  and  _295
REMARK  122  A    between atoms: _295  and  _296
REMARK  123  A    between atoms: _296  and  _297
REMARK  124  A    between atoms: _300  and  _302
REMARK  125  A    between atoms: _302  and  _303
REMARK  126  A    between atoms: _302  and  _305
REMARK  127  A    between atoms: _305  and  _306
REMARK  128  A    between atoms: _306  and  _307
REMARK  129  A    between atoms: _312  and  _314
REMARK  130  A    between atoms: _314  and  _315
REMARK  131  A    between atoms: _314  and  _317
REMARK  132  A    between atoms: _317  and  _318
REMARK  133  A    between atoms: _320  and  _322
REMARK  134  A    between atoms: _322  and  _323
REMARK  135  A    between atoms: _322  and  _325
REMARK  136  A    between atoms: _325  and  _326
REMARK  137  A    between atoms: _332  and  _334
REMARK  138  A    between atoms: _334  and  _335
REMARK  139  A    between atoms: _334  and  _337
REMARK  140  A    between atoms: _340  and  _342
REMARK  141  A    between atoms: _342  and  _343
REMARK  142  A    between atoms: _342  and  _345
REMARK  143  A    between atoms: _345  and  _346
REMARK  144  A    between atoms: _349  and  _351
REMARK  145  A    between atoms: _351  and  _352
REMARK  146  A    between atoms: _351  and  _354
REMARK  147  A    between atoms: _354  and  _355
REMARK  148  A    between atoms: _358  and  _360
REMARK  149  A    between atoms: _360  and  _361
REMARK  150  A    between atoms: _360  and  _363
REMARK  151  A    between atoms: _363  and  _364
REMARK  152  A    between atoms: _367  and  _369
REMARK  153  A    between atoms: _369  and  _370
REMARK  154  A    between atoms: _369  and  _372
REMARK  155  A    between atoms: _372  and  _373
REMARK  156  A    between atoms: _376  and  _378
REMARK  157  A    between atoms: _378  and  _379
REMARK  158  A    between atoms: _378  and  _381
REMARK  159  A    between atoms: _381  and  _382
REMARK  160  A    between atoms: _387  and  _388
REMARK  161  A    between atoms: _390  and  _392
REMARK  162  A    between atoms: _392  and  _393
REMARK  163  A    between atoms: _392  and  _395
REMARK  164  A    between atoms: _395  and  _396
REMARK  165  A    between atoms: _401  and  _402
REMARK  166  A    between atoms: _404  and  _406
REMARK  167  A    between atoms: _406  and  _407
REMARK  168  A    between atoms: _406  and  _409
REMARK  169  A    between atoms: _409  and  _410
REMARK  170  A    between atoms: _413  and  _415
REMARK  171  A    between atoms: _415  and  _416
REMARK  172  A    between atoms: _415  and  _418
REMARK  173  A    between atoms: _418  and  _419
REMARK  174  A    between atoms: _422  and  _424
REMARK  175  A    between atoms: _424  and  _425
REMARK  176  A    between atoms: _424  and  _427
REMARK  177  A    between atoms: _427  and  _428
REMARK  178  A    between atoms: _428  and  _429
REMARK  179  A    between atoms: _434  and  _436
REMARK  180  A    between atoms: _436  and  _437
REMARK  181  A    between atoms: _436  and  _439
REMARK  182  A    between atoms: _442  and  _444
REMARK  183  A    between atoms: _444  and  _445
REMARK  184  A    between atoms: _444  and  _447
REMARK  185  A    between atoms: _447  and  _448
REMARK  186  A    between atoms: _451  and  _453
REMARK  187  A    between atoms: _453  and  _454
REMARK  188  A    between atoms: _453  and  _456
REMARK  189  A    between atoms: _456  and  _457
REMARK  190  A    between atoms: _459  and  _461
REMARK  191  A    between atoms: _461  and  _462
REMARK  192  A    between atoms: _464  and  _466
REMARK  193  A    between atoms: _466  and  _467
REMARK  194  A    between atoms: _466  and  _469
REMARK  195  A    between atoms: _469  and  _470
REMARK  196  A    between atoms: _470  and  _802
REMARK  197  A    between atoms: _471  and  _473
REMARK  198  A    between atoms: _473  and  _474
REMARK  199  A    between atoms: _473  and  _476
REMARK  200  A    between atoms: _476  and  _477
REMARK  201  A    between atoms: _482  and  _483
REMARK  202  A    between atoms: _485  and  _487
REMARK  203  A    between atoms: _487  and  _488
REMARK  204  A    between atoms: _487  and  _490
REMARK  205  A    between atoms: _490  and  _491
REMARK  206  A    between atoms: _491  and  _492
REMARK  207  A    between atoms: _497  and  _499
REMARK  208  A    between atoms: _499  and  _500
REMARK  209  A    between atoms: _499  and  _502
REMARK  210  A    between atoms: _502  and  _503
REMARK  211  A    between atoms: _503  and  _504
REMARK  212  A    between atoms: _509  and  _511
REMARK  213  A    between atoms: _511  and  _512
REMARK  214  A    between atoms: _511  and  _514
REMARK  215  A    between atoms: _514  and  _515
REMARK  216  A    between atoms: _520  and  _521
REMARK  217  A    between atoms: _523  and  _525
REMARK  218  A    between atoms: _525  and  _526
REMARK  219  A    between atoms: _529  and  _531
REMARK  220  A    between atoms: _531  and  _532
REMARK  221  A    between atoms: _531  and  _534
REMARK  222  A    between atoms: _534  and  _535
REMARK  223  A    between atoms: _540  and  _541
REMARK  224  A    between atoms: _543  and  _545
REMARK  225  A    between atoms: _545  and  _546
REMARK  226  A    between atoms: _545  and  _548
REMARK  227  A    between atoms: _548  and  _549
REMARK  228  A    between atoms: _552  and  _554
REMARK  229  A    between atoms: _554  and  _555
REMARK  230  A    between atoms: _554  and  _557
REMARK  231  A    between atoms: _559  and  _561
REMARK  232  A    between atoms: _561  and  _562
REMARK  233  A    between atoms: _561  and  _564
REMARK  234  A    between atoms: _564  and  _565
REMARK  235  A    between atoms: _568  and  _570
REMARK  236  A    between atoms: _570  and  _571
REMARK  237  A    between atoms: _570  and  _573
REMARK  238  A    between atoms: _573  and  _574
REMARK  239  A    between atoms: _579  and  _580
REMARK  240  A    between atoms: _582  and  _584
REMARK  241  A    between atoms: _584  and  _585
REMARK  242  A    between atoms: _584  and  _587
REMARK  243  A    between atoms: _587  and  _588
REMARK  244  A    between atoms: _591  and  _593
REMARK  245  A    between atoms: _593  and  _594
REMARK  246  A    between atoms: _593  and  _596
REMARK  247  A    between atoms: _596  and  _597
REMARK  248  A    between atoms: _607  and  _609
REMARK  249  A    between atoms: _609  and  _610
REMARK  250  A    between atoms: _613  and  _615
REMARK  251  A    between atoms: _615  and  _616
REMARK  252  A    between atoms: _619  and  _621
REMARK  253  A    between atoms: _621  and  _622
REMARK  254  A    between atoms: _621  and  _624
REMARK  255  A    between atoms: _624  and  _625
REMARK  256  A    between atoms: _628  and  _630
REMARK  257  A    between atoms: _630  and  _631
REMARK  258  A    between atoms: _630  and  _633
REMARK  259  A    between atoms: _633  and  _634
REMARK  260  A    between atoms: _637  and  _639
REMARK  261  A    between atoms: _639  and  _640
REMARK  262  A    between atoms: _639  and  _642
REMARK  263  A    between atoms: _642  and  _643
REMARK  264  A    between atoms: _646  and  _648
REMARK  265  A    between atoms: _648  and  _649
REMARK  266  A    between atoms: _648  and  _651
REMARK  267  A    between atoms: _651  and  _652
REMARK  268  A    between atoms: _652  and  _653
REMARK  269  A    between atoms: _653  and  _654
REMARK  270  A    between atoms: _654  and  _655
REMARK  271  A    between atoms: _659  and  _661
REMARK  272  A    between atoms: _661  and  _662
REMARK  273  A    between atoms: _661  and  _664
REMARK  274  A    between atoms: _664  and  _665
REMARK  275  A    between atoms: _670  and  _672
REMARK  276  A    between atoms: _672  and  _673
REMARK  277  A    between atoms: _672  and  _675
REMARK  278  A    between atoms: _675  and  _676
REMARK  279  A    between atoms: _676  and  _677
REMARK  280  A    between atoms: _677  and  _678
REMARK  281  A    between atoms: _678  and  _679
REMARK  282  A    between atoms: _683  and  _685
REMARK  283  A    between atoms: _685  and  _686
REMARK  284  A    between atoms: _685  and  _688
REMARK  285  A    between atoms: _688  and  _689
REMARK  286  A    between atoms: _699  and  _701
REMARK  287  A    between atoms: _701  and  _702
REMARK  288  A    between atoms: _701  and  _704
REMARK  289  A    between atoms: _704  and  _705
REMARK  290  A    between atoms: _705  and  _706
REMARK  291  A    between atoms: _711  and  _713
REMARK  292  A    between atoms: _713  and  _714
REMARK  293  A    between atoms: _717  and  _719
REMARK  294  A    between atoms: _719  and  _720
REMARK  295  A    between atoms: _722  and  _724
REMARK  296  A    between atoms: _724  and  _725
REMARK  297  A    between atoms: _724  and  _727
REMARK  298  A    between atoms: _727  and  _728
REMARK  299  A    between atoms: _728  and  _729
REMARK  300  A    between atoms: _732  and  _734
REMARK  301  A    between atoms: _734  and  _735
REMARK  302  A    between atoms: _738  and  _740
REMARK  303  A    between atoms: _740  and  _741
REMARK  304  A    between atoms: _740  and  _743
REMARK  305  A    between atoms: _743  and  _744
REMARK  306  A    between atoms: _744  and  _745
REMARK  307  A    between atoms: _745  and  _746
REMARK  308  A    between atoms: _755  and  _757
REMARK  309  A    between atoms: _757  and  _758
REMARK  310  A    between atoms: _757  and  _760
REMARK  311  A    between atoms: _760  and  _761
REMARK  312  A    between atoms: _764  and  _766
REMARK  313  A    between atoms: _766  and  _767
REMARK  314  A    between atoms: _766  and  _769
REMARK  315  A    between atoms: _769  and  _770
REMARK  316  A    between atoms: _775  and  _776
REMARK  317  A    between atoms: _778  and  _780
REMARK  318  A    between atoms: _780  and  _781
REMARK  319  A    between atoms: _780  and  _783
REMARK  320  A    between atoms: _783  and  _784
REMARK  321  A    between atoms: _787  and  _789
REMARK  322  A    between atoms: _789  and  _790
REMARK  323  A    between atoms: _789  and  _792
REMARK  324  A    between atoms: _792  and  _793
REMARK  325  A    between atoms: _796  and  _798
REMARK  326  A    between atoms: _798  and  _799
REMARK  327  A    between atoms: _798  and  _801
REMARK  328  A    between atoms: _801  and  _802
REMARK  329  A    between atoms: _803  and  _805
REMARK  330  A    between atoms: _805  and  _806
REMARK  331  A    between atoms: _805  and  _808
REMARK  332  A    between atoms: _811  and  _813
REMARK  333  A    between atoms: _813  and  _814
REMARK  334  A    between atoms: _813  and  _816
REMARK  335  A    between atoms: _816  and  _817
REMARK  336  A    between atoms: _817  and  _818
REMARK  337  A    between atoms: _821  and  _823
REMARK  338  A    between atoms: _823  and  _824
REMARK  339  A    between atoms: _823  and  _826
REMARK  340  A    between atoms: _826  and  _827
REMARK  341  A    between atoms: _837  and  _839
REMARK  342  A    between atoms: _839  and  _840
REMARK  343  A    between atoms: _839  and  _842
REMARK  344  A    between atoms: _842  and  _843
REMARK  345  A    between atoms: _846  and  _848
REMARK  346  A    between atoms: _848  and  _849
REMARK  347  A    between atoms: _848  and  _851
REMARK  348  A    between atoms: _851  and  _852
REMARK  349  A    between atoms: _852  and  _853
REMARK  350  A    between atoms: _853  and  _854
REMARK  351  A    between atoms: _863  and  _865
REMARK  352  A    between atoms: _865  and  _866
REMARK  353  A    between atoms: _865  and  _868
REMARK  354  A    between atoms: _868  and  _869
REMARK  355  A    between atoms: _874  and  _875
REMARK                            x       y       z     vdW  Elec       q    Type
REMARK                         _______ _______ _______ _____ _____    ______ ____
ROOT
ATOM      1  C   THR A   1      53.928  37.304 -16.904  0.00  0.00    +0.241 C 
ATOM      2  N   LEU A   2      52.918  36.755 -16.231  0.00  0.00    -0.298 N 
ATOM      3  H   LEU A   2      53.007  36.628 -15.203  0.00  0.00    +0.150 HD
ATOM      4  O   THR A   1      53.891  37.520 -18.118  0.00  0.00    -0.274 OA
ENDROOT
BRANCH   1   5
ATOM      5  CA  THR A   1      55.172  37.654 -16.088  0.00  0.00    +0.172 C 
BRANCH   5   6
ATOM      6  N   THR A   1      54.849  38.307 -14.824  0.00  0.00    -0.236 NA
ATOM      7  H   THR A   1      55.217  37.901 -13.940  0.00  0.00    +0.142 HD
ENDBRANCH   5   6
BRANCH   5   8
ATOM      8  CB  THR A   1      55.967  36.358 -15.847  0.00  0.00    +0.135 C 
ATOM      9  CG2 THR A   1      56.399  35.726 -17.162  0.00  0.00    +0.034 C 
BRANCH   8  10
ATOM     10  OG1 THR A   1      57.129  36.644 -15.063  0.00  0.00    -0.383 OA
ATOM     11  HG1 THR A   1      57.637  35.808 -14.911  0.00  0.00    +0.210 HD
ENDBRANCH   8  10
ENDBRANCH   5   8
ENDBRANCH   1   5
BRANCH   2  12
ATOM     12  CA  LEU A   2      51.688  36.325 -16.894  0.00  0.00    +0.137 C 
BRANCH  12  13
ATOM     13  C   LEU A   2      50.910  37.473 -17.555  0.00  0.00    +0.227 C 
ATOM     14  O   LEU A   2      50.228  37.257 -18.554  0.00  0.00    -0.286 OA
ENDBRANCH  12  13
BRANCH  12  15
ATOM     15  CB  LEU A   2      50.788  35.583 -15.906  0.00  0.00    +0.028 C 
BRANCH  15  16
ATOM     16  CG  LEU A   2      51.259  34.163 -15.562  0.00  0.00    +0.002 C 
ATOM     17  CD2 LEU A   2      50.986  33.786 -14.105  0.00  0.00    +0.000 C 
ATOM     18  CD1 LEU A   2      50.620  33.151 -16.499  0.00  0.00    +0.000 C 
ENDBRANCH  15  16
ENDBRANCH  12  15
ENDBRANCH   2  12
TORSDOF 8
REMARK  Name = ../refined-set-2016/4pge/4pge_pocket.pdb
REMARK  355 active torsions:
REMARK  status: ('A' for Active; 'I' for Inactive)
REMARK    1  A    between atoms: _1  and  _3
REMARK    2  A    between atoms: _3  and  _4
REMARK    3  A    between atoms: _3  and  _6
REMARK    4  A    between atoms: _6  and  _7
REMARK    5  A    between atoms: _10  and  _12
REMARK    6  A    between atoms: _12  and  _13
REMARK    7  A    between atoms: _12  and  _15
REMARK    8  A    between atoms: _15  and  _16
REMARK    9  A    between atoms: _16  and  _17
REMARK   10  A    between atoms: _17  and  _18
REMARK   11  A    between atoms: _27  and  _29
REMARK   12  A    between atoms: _29  and  _30
REMARK   13  A    between atoms: _29  and  _32
REMARK   14  A    between atoms: _32  and  _33
REMARK   15  A    between atoms: _38  and  _39
REMARK   16  A    between atoms: _41  and  _43
REMARK   17  A    between atoms: _43  and  _44
REMARK   18  A    between atoms: _43  and  _46
REMARK   19  A    between atoms: _46  and  _47
REMARK   20  A    between atoms: _53  and  _55
REMARK   21  A    between atoms: _55  and  _56
REMARK   22  A    between atoms: _55  and  _58
REMARK   23  A    between atoms: _61  and  _63
REMARK   24  A    between atoms: _63  and  _64
REMARK   25  A    between atoms: _63  and  _66
REMARK   26  A    between atoms: _66  and  _67
REMARK   27  A    between atoms: _70  and  _72
REMARK   28  A    between atoms: _72  and  _73
REMARK   29  A    between atoms: _76  and  _78
REMARK   30  A    between atoms: _78  and  _79
REMARK   31  A    between atoms: _78  and  _81
REMARK   32  A    between atoms: _81  and  _82
REMARK   33  A    between atoms: _87  and  _88
REMARK   34  A    between atoms: _90  and  _92
REMARK   35  A    between atoms: _92  and  _93
REMARK   36  A    between atoms: _92  and  _95
REMARK   37  A    between atoms: _95  and  _96
REMARK   38  A    between atoms: _96  and  _97
REMARK   39  A    between atoms: _99  and  _101
REMARK   40  A    between atoms: _101  and  _102
REMARK   41  A    between atoms: _101  and  _104
REMARK   42  A    between atoms: _104  and  _105
REMARK   43  A    between atoms: _105  and  _106
REMARK   44  A    between atoms: _109  and  _111
REMARK   45  A    between atoms: _111  and  _112
REMARK   46  A    between atoms: _111  and  _114
REMARK   47  A    between atoms: _117  and  _119
REMARK   48  A    between atoms: _119  and  _120
REMARK   49  A    between atoms: _122  and  _124
REMARK   50  A    between atoms: _124  and  _125
REMARK   51  A    between atoms: _124  and  _127
REMARK   52  A    between atoms: _130  and  _132
REMARK   53  A    between atoms: _132  and  _133
REMARK   54  A    between atoms: _132  and  _135
REMARK   55  A    between atoms: _135  and  _136
REMARK   56  A    between atoms: _142  and  _144
REMARK   57  A    between atoms: _144  and  _145
REMARK   58  A    between atoms: _144  and  _147
REMARK   59  A    between atoms: _150  and  _152
REMARK   60  A    between atoms: _152  and  _153
REMARK   61  A    between atoms: _152  and  _155
REMARK   62  A    between atoms: _155  and  _156
REMARK   63  A    between atoms: _161  and  _162
REMARK   64  A    between atoms: _164  and  _166
REMARK   65  A    between atoms: _166  and  _167
REMARK   66  A    between atoms: _166  and  _169
REMARK   67  A    between atoms: _169  and  _170
REMARK   68  A    between atoms: _170  and  _171
REMARK   69  A    between atoms: _173  and  _175
REMARK   70  A    between atoms: _175  and  _176
REMARK   71  A    between atoms: _175  and  _178
REMARK   72  A    between atoms: _178  and  _179
REMARK   73  A    between atoms: _179  and  _180
REMARK   74  A    between atoms: _183  and  _185
REMARK   75  A    between atoms: _185  and  _186
REMARK   76  A    between atoms: _185  and  _188
REMARK   77  A    between atoms: _188  and  _189
REMARK   78  A    between atoms: _189  and  _190
REMARK   79  A    between atoms: _193  and  _195
REMARK   80  A    between atoms: _195  and  _196
REMARK   81  A    between atoms: _195  and  _198
REMARK   82  A    between atoms: _198  and  _199
REMARK   83  A    between atoms: _204  and  _205
REMARK   84  A    between atoms: _207  and  _209
REMARK   85  A    between atoms: _209  and  _210
REMARK   86  A    between atoms: _209  and  _212
REMARK   87  A    between atoms: _212  and  _213
REMARK   88  A    between atoms: _213  and  _214
REMARK   89  A    between atoms: _214  and  _215
REMARK   90  A    between atoms: _224  and  _226
REMARK   91  A    between atoms: _226  and  _227
REMARK   92  A    between atoms: _226  and  _229
REMARK   93  A    between atoms: _229  and  _230
REMARK   94  A    between atoms: _230  and  _231
REMARK   95  A    between atoms: _234  and  _236
REMARK   96  A    between atoms: _236  and  _237
REMARK   97  A    between atoms: _236  and  _239
REMARK   98  A    between atoms: _239  and  _240
REMARK   99  A    between atoms: _243  and  _245
REMARK  100  A    between atoms: _245  and  _246
REMARK  101  A    between atoms: _245  and  _248
REMARK  102  A    between atoms: _248  and  _249
REMARK  103  A    between atoms: _249  and  _250
REMARK  104  A    between atoms: _255  and  _257
REMARK  105  A    between atoms: _257  and  _258
REMARK  106  A    between atoms: _257  and  _260
REMARK  107  A    between atoms: _260  and  _261
REMARK  108  A    between atoms: _261  and  _262
REMARK  109  A    between atoms: _262  and  _263
REMARK  110  A    between atoms: _263  and  _264
REMARK  111  A    between atoms: _268  and  _270
REMARK  112  A    between atoms: _270  and  _271
REMARK  113  A    between atoms: _274  and  _276
REMARK  114  A    between atoms: _276  and  _277
REMARK  115  A    between atoms: _279  and  _281
REMARK  116  A    between atoms: _281  and  _282
REMARK  117  A    between atoms: _281  and  _284
REMARK  118  A    between atoms: _284  and  _285
REMARK  119  A    between atoms: _290  and  _292
REMARK  120  A    between atoms: _292  and  _293
REMARK  121  A    between atoms: _292  and  _295
REMARK  122  A    between atoms: _295  and  _296
REMARK  123  A    between atoms: _296  and  _297
REMARK  124  A    between atoms: _300  and  _302
REMARK  125  A    between atoms: _302  and  _303
REMARK  126  A    between atoms: _302  and  _305
REMARK  127  A    between atoms: _305  and  _306
REMARK  128  A    between atoms: _306  and  _307
REMARK  129  A    between atoms: _312  and  _314
REMARK  130  A    between atoms: _314  and  _315
REMARK  131  A    between atoms: _314  and  _317
REMARK  132  A    between atoms: _317  and  _318
REMARK  133  A    between atoms: _320  and  _322
REMARK  134  A    between atoms: _322  and  _323
REMARK  135  A    between atoms: _322  and  _325
REMARK  136  A    between atoms: _325  and  _326
REMARK  137  A    between atoms: _332  and  _334
REMARK  138  A    between atoms: _334  and  _335
REMARK  139  A    between atoms: _334  and  _337
REMARK  140  A    between atoms: _340  and  _342
REMARK  141  A    between atoms: _342  and  _343
REMARK  142  A    between atoms: _342  and  _345
REMARK  143  A    between atoms: _345  and  _346
REMARK  144  A    between atoms: _349  and  _351
REMARK  145  A    between atoms: _351  and  _352
REMARK  146  A    between atoms: _351  and  _354
REMARK  147  A    between atoms: _354  and  _355
REMARK  148  A    between atoms: _358  and  _360
REMARK  149  A    between atoms: _360  and  _361
REMARK  150  A    between atoms: _360  and  _363
REMARK  151  A    between atoms: _363  and  _364
REMARK  152  A    between atoms: _367  and  _369
REMARK  153  A    between atoms: _369  and  _370
REMARK  154  A    between atoms: _369  and  _372
REMARK  155  A    between atoms: _372  and  _373
REMARK  156  A    between atoms: _376  and  _378
REMARK  157  A    between atoms: _378  and  _379
REMARK  158  A    between atoms: _378  and  _381
REMARK  159  A    between atoms: _381  and  _382
REMARK  160  A    between atoms: _387  and  _388
REMARK  161  A    between atoms: _390  and  _392
REMARK  162  A    between atoms: _392  and  _393
REMARK  163  A    between atoms: _392  and  _395
REMARK  164  A    between atoms: _395  and  _396
REMARK  165  A    between atoms: _401  and  _402
REMARK  166  A    between atoms: _404  and  _406
REMARK  167  A    between atoms: _406  and  _407
REMARK  168  A    between atoms: _406  and  _409
REMARK  169  A    between atoms: _409  and  _410
REMARK  170  A    between atoms: _413  and  _415
REMARK  171  A    between atoms: _415  and  _416
REMARK  172  A    between atoms: _415  and  _418
REMARK  173  A    between atoms: _418  and  _419
REMARK  174  A    between atoms: _422  and  _424
REMARK  175  A    between atoms: _424  and  _425
REMARK  176  A    between atoms: _424  and  _427
REMARK  177  A    between atoms: _427  and  _428
REMARK  178  A    between atoms: _428  and  _429
REMARK  179  A    between atoms: _434  and  _436
REMARK  180  A    between atoms: _436  and  _437
REMARK  181  A    between atoms: _436  and  _439
REMARK  182  A    between atoms: _442  and  _444
REMARK  183  A    between atoms: _444  and  _445
REMARK  184  A    between atoms: _444  and  _447
REMARK  185  A    between atoms: _447  and  _448
REMARK  186  A    between atoms: _451  and  _453
REMARK  187  A    between atoms: _453  and  _454
REMARK  188  A    between atoms: _453  and  _456
REMARK  189  A    between atoms: _456  and  _457
REMARK  190  A    between atoms: _459  and  _461
REMARK  191  A    between atoms: _461  and  _462
REMARK  192  A    between atoms: _464  and  _466
REMARK  193  A    between atoms: _466  and  _467
REMARK  194  A    between atoms: _466  and  _469
REMARK  195  A    between atoms: _469  and  _470
REMARK  196  A    between atoms: _470  and  _802
REMARK  197  A    between atoms: _471  and  _473
REMARK  198  A    between atoms: _473  and  _474
REMARK  199  A    between atoms: _473  and  _476
REMARK  200  A    between atoms: _476  and  _477
REMARK  201  A    between atoms: _482  and  _483
REMARK  202  A    between atoms: _485  and  _487
REMARK  203  A    between atoms: _487  and  _488
REMARK  204  A    between atoms: _487  and  _490
REMARK  205  A    between atoms: _490  and  _491
REMARK  206  A    between atoms: _491  and  _492
REMARK  207  A    between atoms: _497  and  _499
REMARK  208  A    between atoms: _499  and  _500
REMARK  209  A    between atoms: _499  and  _502
REMARK  210  A    between atoms: _502  and  _503
REMARK  211  A    between atoms: _503  and  _504
REMARK  212  A    between atoms: _509  and  _511
REMARK  213  A    between atoms: _511  and  _512
REMARK  214  A    between atoms: _511  and  _514
REMARK  215  A    between atoms: _514  and  _515
REMARK  216  A    between atoms: _520  and  _521
REMARK  217  A    between atoms: _523  and  _525
REMARK  218  A    between atoms: _525  and  _526
REMARK  219  A    between atoms: _529  and  _531
REMARK  220  A    between atoms: _531  and  _532
REMARK  221  A    between atoms: _531  and  _534
REMARK  222  A    between atoms: _534  and  _535
REMARK  223  A    between atoms: _540  and  _541
REMARK  224  A    between atoms: _543  and  _545
REMARK  225  A    between atoms: _545  and  _546
REMARK  226  A    between atoms: _545  and  _548
REMARK  227  A    between atoms: _548  and  _549
REMARK  228  A    between atoms: _552  and  _554
REMARK  229  A    between atoms: _554  and  _555
REMARK  230  A    between atoms: _554  and  _557
REMARK  231  A    between atoms: _559  and  _561
REMARK  232  A    between atoms: _561  and  _562
REMARK  233  A    between atoms: _561  and  _564
REMARK  234  A    between atoms: _564  and  _565
REMARK  235  A    between atoms: _568  and  _570
REMARK  236  A    between atoms: _570  and  _571
REMARK  237  A    between atoms: _570  and  _573
REMARK  238  A    between atoms: _573  and  _574
REMARK  239  A    between atoms: _579  and  _580
REMARK  240  A    between atoms: _582  and  _584
REMARK  241  A    between atoms: _584  and  _585
REMARK  242  A    between atoms: _584  and  _587
REMARK  243  A    between atoms: _587  and  _588
REMARK  244  A    between atoms: _591  and  _593
REMARK  245  A    between atoms: _593  and  _594
REMARK  246  A    between atoms: _593  and  _596
REMARK  247  A    between atoms: _596  and  _597
REMARK  248  A    between atoms: _607  and  _609
REMARK  249  A    between atoms: _609  and  _610
REMARK  250  A    between atoms: _613  and  _615
REMARK  251  A    between atoms: _615  and  _616
REMARK  252  A    between atoms: _619  and  _621
REMARK  253  A    between atoms: _621  and  _622
REMARK  254  A    between atoms: _621  and  _624
REMARK  255  A    between atoms: _624  and  _625
REMARK  256  A    between atoms: _628  and  _630
REMARK  257  A    between atoms: _630  and  _631
REMARK  258  A    between atoms: _630  and  _633
REMARK  259  A    between atoms: _633  and  _634
REMARK  260  A    between atoms: _637  and  _639
REMARK  261  A    between atoms: _639  and  _640
REMARK  262  A    between atoms: _639  and  _642
REMARK  263  A    between atoms: _642  and  _643
REMARK  264  A    between atoms: _646  and  _648
REMARK  265  A    between atoms: _648  and  _649
REMARK  266  A    between atoms: _648  and  _651
REMARK  267  A    between atoms: _651  and  _652
REMARK  268  A    between atoms: _652  and  _653
REMARK  269  A    between atoms: _653  and  _654
REMARK  270  A    between atoms: _654  and  _655
REMARK  271  A    between atoms: _659  and  _661
REMARK  272  A    between atoms: _661  and  _662
REMARK  273  A    between atoms: _661  and  _664
REMARK  274  A    between atoms: _664  and  _665
REMARK  275  A    between atoms: _670  and  _672
REMARK  276  A    between atoms: _672  and  _673
REMARK  277  A    between atoms: _672  and  _675
REMARK  278  A    between atoms: _675  and  _676
REMARK  279  A    between atoms: _676  and  _677
REMARK  280  A    between atoms: _677  and  _678
REMARK  281  A    between atoms: _678  and  _679
REMARK  282  A    between atoms: _683  and  _685
REMARK  283  A    between atoms: _685  and  _686
REMARK  284  A    between atoms: _685  and  _688
REMARK  285  A    between atoms: _688  and  _689
REMARK  286  A    between atoms: _699  and  _701
REMARK  287  A    between atoms: _701  and  _702
REMARK  288  A    between atoms: _701  and  _704
REMARK  289  A    between atoms: _704  and  _705
REMARK  290  A    between atoms: _705  and  _706
REMARK  291  A    between atoms: _711  and  _713
REMARK  292  A    between atoms: _713  and  _714
REMARK  293  A    between atoms: _717  and  _719
REMARK  294  A    between atoms: _719  and  _720
REMARK  295  A    between atoms: _722  and  _724
REMARK  296  A    between atoms: _724  and  _725
REMARK  297  A    between atoms: _724  and  _727
REMARK  298  A    between atoms: _727  and  _728
REMARK  299  A    between atoms: _728  and  _729
REMARK  300  A    between atoms: _732  and  _734
REMARK  301  A    between atoms: _734  and  _735
REMARK  302  A    between atoms: _738  and  _740
REMARK  303  A    between atoms: _740  and  _741
REMARK  304  A    between atoms: _740  and  _743
REMARK  305  A    between atoms: _743  and  _744
REMARK  306  A    between atoms: _744  and  _745
REMARK  307  A    between atoms: _745  and  _746
REMARK  308  A    between atoms: _755  and  _757
REMARK  309  A    between atoms: _757  and  _758
REMARK  310  A    between atoms: _757  and  _760
REMARK  311  A    between atoms: _760  and  _761
REMARK  312  A    between atoms: _764  and  _766
REMARK  313  A    between atoms: _766  and  _767
REMARK  314  A    between atoms: _766  and  _769
REMARK  315  A    between atoms: _769  and  _770
REMARK  316  A    between atoms: _775  and  _776
REMARK  317  A    between atoms: _778  and  _780
REMARK  318  A    between atoms: _780  and  _781
REMARK  319  A    between atoms: _780  and  _783
REMARK  320  A    between atoms: _783  and  _784
REMARK  321  A    between atoms: _787  and  _789
REMARK  322  A    between atoms: _789  and  _790
REMARK  323  A    between atoms: _789  and  _792
REMARK  324  A    between atoms: _792  and  _793
REMARK  325  A    between atoms: _796  and  _798
REMARK  326  A    between atoms: _798  and  _799
REMARK  327  A    between atoms: _798  and  _801
REMARK  328  A    between atoms: _801  and  _802
REMARK  329  A    between atoms: _803  and  _805
REMARK  330  A    between atoms: _805  and  _806
REMARK  331  A    between atoms: _805  and  _808
REMARK  332  A    between atoms: _811  and  _813
REMARK  333  A    between atoms: _813  and  _814
REMARK  334  A    between atoms: _813  and  _816
REMARK  335  A    between atoms: _816  and  _817
REMARK  336  A    between atoms: _817  and  _818
REMARK  337  A    between atoms: _821  and  _823
REMARK  338  A    between atoms: _823  and  _824
REMARK  339  A    between atoms: _823  and  _826
REMARK  340  A    between atoms: _826  and  _827
REMARK  341  A    between atoms: _837  and  _839
REMARK  342  A    between atoms: _839  and  _840
REMARK  343  A    between atoms: _839  and  _842
REMARK  344  A    between atoms: _842  and  _843
REMARK  345  A    between atoms: _846  and  _848
REMARK  346  A    between atoms: _848  and  _849
REMARK  347  A    between atoms: _848  and  _851
REMARK  348  A    between atoms: _851  and  _852
REMARK  349  A    between atoms: _852  and  _853
REMARK  350  A    between atoms: _853  and  _854
REMARK  351  A    between atoms: _863  and  _865
REMARK  352  A    between atoms: _865  and  _866
REMARK  353  A    between atoms: _865  and  _868
REMARK  354  A    between atoms: _868  and  _869
REMARK  355  A    between atoms: _874  and  _875
REMARK                            x       y       z     vdW  Elec       q    Type
REMARK                         _______ _______ _______ _____ _____    ______ ____
ROOT
ATOM      1  C   TYR A   1      50.705  36.337 -22.164  0.00  0.00    +0.239 C 
ATOM      2  N   TYR A   2      49.760  36.830 -21.364  0.00  0.00    -0.298 N 
ATOM      3  H   TYR A   2      50.019  37.156 -20.411  0.00  0.00    +0.150 HD
ATOM      4  O   TYR A   1      50.474  35.973 -23.313  0.00  0.00    -0.274 OA
ENDROOT
BRANCH   1   5
ATOM      5  CA  TYR A   1      52.122  36.215 -21.590  0.00  0.00    +0.149 C 
BRANCH   5   6
ATOM      6  N   TYR A   1      52.582  37.423 -20.882  0.00  0.00    -0.238 NA
ATOM      7  H   TYR A   1      53.014  37.313 -19.943  0.00  0.00    +0.142 HD
ENDBRANCH   5   6
BRANCH   5   8
ATOM      8  CB  TYR A   1      52.162  34.992 -20.659  0.00  0.00    +0.053 C 
BRANCH   8   9
ATOM      9  CG  TYR A   1      53.540  34.430 -20.326  0.00  0.00    -0.020 A 
ATOM     10  CD2 TYR A   1      53.657  33.247 -19.595  0.00  0.00    -0.001 A 
ATOM     11  CE2 TYR A   1      54.897  32.722 -19.263  0.00  0.00    +0.036 A 
ATOM     12  CZ  TYR A   1      56.043  33.378 -19.656  0.00  0.00    +0.134 A 
ATOM     13  CE1 TYR A   1      55.962  34.563 -20.374  0.00  0.00    +0.036 A 
ATOM     14  CD1 TYR A   1      54.718  35.087 -20.697  0.00  0.00    -0.001 A 
BRANCH  12  15
ATOM     15  OH  TYR A   1      57.267  32.859 -19.324  0.00  0.00    -0.506 OA
ATOM     16  HH  TYR A   1      57.344  32.803 -18.339  0.00  0.00    +0.292 HD
ENDBRANCH  12  15
ENDBRANCH   8   9
ENDBRANCH   5   8
ENDBRANCH   1   5
BRANCH   2  17
ATOM     17  CA  TYR A   2      48.356  36.924 -21.800  0.00  0.00    +0.141 C 
BRANCH  17  18
ATOM     18  C   TYR A   2      47.902  38.343 -22.185  0.00  0.00    +0.227 C 
ATOM     19  O   TYR A   2      46.707  38.564 -22.395  0.00  0.00    -0.286 OA
ENDBRANCH  17  18
BRANCH  17  20
ATOM     20  CB  TYR A   2      47.422  36.390 -20.714  0.00  0.00    +0.054 C 
BRANCH  20  21
ATOM     21  CG  TYR A   2      47.533  34.908 -20.450  0.00  0.00    -0.020 A 
ATOM     22  CD2 TYR A   2      48.271  34.432 -19.374  0.00  0.00    -0.001 A 
ATOM     23  CE2 TYR A   2      48.364  33.075 -19.114  0.00  0.00    +0.036 A 
ATOM     24  CZ  TYR A   2      47.717  32.175 -19.928  0.00  0.00    +0.134 A 
ATOM     25  CE1 TYR A   2      46.974  32.619 -21.010  0.00  0.00    +0.036 A 
ATOM     26  CD1 TYR A   2      46.882  33.981 -21.261  0.00  0.00    -0.001 A 
BRANCH  24  27
ATOM     27  OH  TYR A   2      47.825  30.833 -19.649  0.00  0.00    -0.506 OA
ATOM     28  HH  TYR A   2      47.309  30.316 -20.317  0.00  0.00    +0.292 HD
ENDBRANCH  24  27
ENDBRANCH  20  21
ENDBRANCH  17  20
ENDBRANCH   2  17
TORSDOF 10
REMARK  Name = ../refined-set-2016/4pge/4pge_pocket.pdb
REMARK  355 active torsions:
REMARK  status: ('A' for Active; 'I' for Inactive)
REMARK    1  A    between atoms: _1  and  _3
REMARK    2  A    between atoms: _3  and  _4
REMARK    3  A    between atoms: _3  and  _6
REMARK    4  A    between atoms: _6  and  _7
REMARK    5  A    between atoms: _10  and  _12
REMARK    6  A    between atoms: _12  and  _13
REMARK    7  A    between atoms: _12  and  _15
REMARK    8  A    between atoms: _15  and  _16
REMARK    9  A    between atoms: _16  and  _17
REMARK   10  A    between atoms: _17  and  _18
REMARK   11  A    between atoms: _27  and  _29
REMARK   12  A    between atoms: _29  and  _30
REMARK   13  A    between atoms: _29  and  _32
REMARK   14  A    between atoms: _32  and  _33
REMARK   15  A    between atoms: _38  and  _39
REMARK   16  A    between atoms: _41  and  _43
REMARK   17  A    between atoms: _43  and  _44
REMARK   18  A    between atoms: _43  and  _46
REMARK   19  A    between atoms: _46  and  _47
REMARK   20  A    between atoms: _53  and  _55
REMARK   21  A    between atoms: _55  and  _56
REMARK   22  A    between atoms: _55  and  _58
REMARK   23  A    between atoms: _61  and  _63
REMARK   24  A    between atoms: _63  and  _64
REMARK   25  A    between atoms: _63  and  _66
REMARK   26  A    between atoms: _66  and  _67
REMARK   27  A    between atoms: _70  and  _72
REMARK   28  A    between atoms: _72  and  _73
REMARK   29  A    between atoms: _76  and  _78
REMARK   30  A    between atoms: _78  and  _79
REMARK   31  A    between atoms: _78  and  _81
REMARK   32  A    between atoms: _81  and  _82
REMARK   33  A    between atoms: _87  and  _88
REMARK   34  A    between atoms: _90  and  _92
REMARK   35  A    between atoms: _92  and  _93
REMARK   36  A    between atoms: _92  and  _95
REMARK   37  A    between atoms: _95  and  _96
REMARK   38  A    between atoms: _96  and  _97
REMARK   39  A    between atoms: _99  and  _101
REMARK   40  A    between atoms: _101  and  _102
REMARK   41  A    between atoms: _101  and  _104
REMARK   42  A    between atoms: _104  and  _105
REMARK   43  A    between atoms: _105  and  _106
REMARK   44  A    between atoms: _109  and  _111
REMARK   45  A    between atoms: _111  and  _112
REMARK   46  A    between atoms: _111  and  _114
REMARK   47  A    between atoms: _117  and  _119
REMARK   48  A    between atoms: _119  and  _120
REMARK   49  A    between atoms: _122  and  _124
REMARK   50  A    between atoms: _124  and  _125
REMARK   51  A    between atoms: _124  and  _127
REMARK   52  A    between atoms: _130  and  _132
REMARK   53  A    between atoms: _132  and  _133
REMARK   54  A    between atoms: _132  and  _135
REMARK   55  A    between atoms: _135  and  _136
REMARK   56  A    between atoms: _142  and  _144
REMARK   57  A    between atoms: _144  and  _145
REMARK   58  A    between atoms: _144  and  _147
REMARK   59  A    between atoms: _150  and  _152
REMARK   60  A    between atoms: _152  and  _153
REMARK   61  A    between atoms: _152  and  _155
REMARK   62  A    between atoms: _155  and  _156
REMARK   63  A    between atoms: _161  and  _162
REMARK   64  A    between atoms: _164  and  _166
REMARK   65  A    between atoms: _166  and  _167
REMARK   66  A    between atoms: _166  and  _169
REMARK   67  A    between atoms: _169  and  _170
REMARK   68  A    between atoms: _170  and  _171
REMARK   69  A    between atoms: _173  and  _175
REMARK   70  A    between atoms: _175  and  _176
REMARK   71  A    between atoms: _175  and  _178
REMARK   72  A    between atoms: _178  and  _179
REMARK   73  A    between atoms: _179  and  _180
REMARK   74  A    between atoms: _183  and  _185
REMARK   75  A    between atoms: _185  and  _186
REMARK   76  A    between atoms: _185  and  _188
REMARK   77  A    between atoms: _188  and  _189
REMARK   78  A    between atoms: _189  and  _190
REMARK   79  A    between atoms: _193  and  _195
REMARK   80  A    between atoms: _195  and  _196
REMARK   81  A    between atoms: _195  and  _198
REMARK   82  A    between atoms: _198  and  _199
REMARK   83  A    between atoms: _204  and  _205
REMARK   84  A    between atoms: _207  and  _209
REMARK   85  A    between atoms: _209  and  _210
REMARK   86  A    between atoms: _209  and  _212
REMARK   87  A    between atoms: _212  and  _213
REMARK   88  A    between atoms: _213  and  _214
REMARK   89  A    between atoms: _214  and  _215
REMARK   90  A    between atoms: _224  and  _226
REMARK   91  A    between atoms: _226  and  _227
REMARK   92  A    between atoms: _226  and  _229
REMARK   93  A    between atoms: _229  and  _230
REMARK   94  A    between atoms: _230  and  _231
REMARK   95  A    between atoms: _234  and  _236
REMARK   96  A    between atoms: _236  and  _237
REMARK   97  A    between atoms: _236  and  _239
REMARK   98  A    between atoms: _239  and  _240
REMARK   99  A    between atoms: _243  and  _245
REMARK  100  A    between atoms: _245  and  _246
REMARK  101  A    between atoms: _245  and  _248
REMARK  102  A    between atoms: _248  and  _249
REMARK  103  A    between atoms: _249  and  _250
REMARK  104  A    between atoms: _255  and  _257
REMARK  105  A    between atoms: _257  and  _258
REMARK  106  A    between atoms: _257  and  _260
REMARK  107  A    between atoms: _260  and  _261
REMARK  108  A    between atoms: _261  and  _262
REMARK  109  A    between atoms: _262  and  _263
REMARK  110  A    between atoms: _263  and  _264
REMARK  111  A    between atoms: _268  and  _270
REMARK  112  A    between atoms: _270  and  _271
REMARK  113  A    between atoms: _274  and  _276
REMARK  114  A    between atoms: _276  and  _277
REMARK  115  A    between atoms: _279  and  _281
REMARK  116  A    between atoms: _281  and  _282
REMARK  117  A    between atoms: _281  and  _284
REMARK  118  A    between atoms: _284  and  _285
REMARK  119  A    between atoms: _290  and  _292
REMARK  120  A    between atoms: _292  and  _293
REMARK  121  A    between atoms: _292  and  _295
REMARK  122  A    between atoms: _295  and  _296
REMARK  123  A    between atoms: _296  and  _297
REMARK  124  A    between atoms: _300  and  _302
REMARK  125  A    between atoms: _302  and  _303
REMARK  126  A    between atoms: _302  and  _305
REMARK  127  A    between atoms: _305  and  _306
REMARK  128  A    between atoms: _306  and  _307
REMARK  129  A    between atoms: _312  and  _314
REMARK  130  A    between atoms: _314  and  _315
REMARK  131  A    between atoms: _314  and  _317
REMARK  132  A    between atoms: _317  and  _318
REMARK  133  A    between atoms: _320  and  _322
REMARK  134  A    between atoms: _322  and  _323
REMARK  135  A    between atoms: _322  and  _325
REMARK  136  A    between atoms: _325  and  _326
REMARK  137  A    between atoms: _332  and  _334
REMARK  138  A    between atoms: _334  and  _335
REMARK  139  A    between atoms: _334  and  _337
REMARK  140  A    between atoms: _340  and  _342
REMARK  141  A    between atoms: _342  and  _343
REMARK  142  A    between atoms: _342  and  _345
REMARK  143  A    between atoms: _345  and  _346
REMARK  144  A    between atoms: _349  and  _351
REMARK  145  A    between atoms: _351  and  _352
REMARK  146  A    between atoms: _351  and  _354
REMARK  147  A    between atoms: _354  and  _355
REMARK  148  A    between atoms: _358  and  _360
REMARK  149  A    between atoms: _360  and  _361
REMARK  150  A    between atoms: _360  and  _363
REMARK  151  A    between atoms: _363  and  _364
REMARK  152  A    between atoms: _367  and  _369
REMARK  153  A    between atoms: _369  and  _370
REMARK  154  A    between atoms: _369  and  _372
REMARK  155  A    between atoms: _372  and  _373
REMARK  156  A    between atoms: _376  and  _378
REMARK  157  A    between atoms: _378  and  _379
REMARK  158  A    between atoms: _378  and  _381
REMARK  159  A    between atoms: _381  and  _382
REMARK  160  A    between atoms: _387  and  _388
REMARK  161  A    between atoms: _390  and  _392
REMARK  162  A    between atoms: _392  and  _393
REMARK  163  A    between atoms: _392  and  _395
REMARK  164  A    between atoms: _395  and  _396
REMARK  165  A    between atoms: _401  and  _402
REMARK  166  A    between atoms: _404  and  _406
REMARK  167  A    between atoms: _406  and  _407
REMARK  168  A    between atoms: _406  and  _409
REMARK  169  A    between atoms: _409  and  _410
REMARK  170  A    between atoms: _413  and  _415
REMARK  171  A    between atoms: _415  and  _416
REMARK  172  A    between atoms: _415  and  _418
REMARK  173  A    between atoms: _418  and  _419
REMARK  174  A    between atoms: _422  and  _424
REMARK  175  A    between atoms: _424  and  _425
REMARK  176  A    between atoms: _424  and  _427
REMARK  177  A    between atoms: _427  and  _428
REMARK  178  A    between atoms: _428  and  _429
REMARK  179  A    between atoms: _434  and  _436
REMARK  180  A    between atoms: _436  and  _437
REMARK  181  A    between atoms: _436  and  _439
REMARK  182  A    between atoms: _442  and  _444
REMARK  183  A    between atoms: _444  and  _445
REMARK  184  A    between atoms: _444  and  _447
REMARK  185  A    between atoms: _447  and  _448
REMARK  186  A    between atoms: _451  and  _453
REMARK  187  A    between atoms: _453  and  _454
REMARK  188  A    between atoms: _453  and  _456
REMARK  189  A    between atoms: _456  and  _457
REMARK  190  A    between atoms: _459  and  _461
REMARK  191  A    between atoms: _461  and  _462
REMARK  192  A    between atoms: _464  and  _466
REMARK  193  A    between atoms: _466  and  _467
REMARK  194  A    between atoms: _466  and  _469
REMARK  195  A    between atoms: _469  and  _470
REMARK  196  A    between atoms: _470  and  _802
REMARK  197  A    between atoms: _471  and  _473
REMARK  198  A    between atoms: _473  and  _474
REMARK  199  A    between atoms: _473  and  _476
REMARK  200  A    between atoms: _476  and  _477
REMARK  201  A    between atoms: _482  and  _483
REMARK  202  A    between atoms: _485  and  _487
REMARK  203  A    between atoms: _487  and  _488
REMARK  204  A    between atoms: _487  and  _490
REMARK  205  A    between atoms: _490  and  _491
REMARK  206  A    between atoms: _491  and  _492
REMARK  207  A    between atoms: _497  and  _499
REMARK  208  A    between atoms: _499  and  _500
REMARK  209  A    between atoms: _499  and  _502
REMARK  210  A    between atoms: _502  and  _503
REMARK  211  A    between atoms: _503  and  _504
REMARK  212  A    between atoms: _509  and  _511
REMARK  213  A    between atoms: _511  and  _512
REMARK  214  A    between atoms: _511  and  _514
REMARK  215  A    between atoms: _514  and  _515
REMARK  216  A    between atoms: _520  and  _521
REMARK  217  A    between atoms: _523  and  _525
REMARK  218  A    between atoms: _525  and  _526
REMARK  219  A    between atoms: _529  and  _531
REMARK  220  A    between atoms: _531  and  _532
REMARK  221  A    between atoms: _531  and  _534
REMARK  222  A    between atoms: _534  and  _535
REMARK  223  A    between atoms: _540  and  _541
REMARK  224  A    between atoms: _543  and  _545
REMARK  225  A    between atoms: _545  and  _546
REMARK  226  A    between atoms: _545  and  _548
REMARK  227  A    between atoms: _548  and  _549
REMARK  228  A    between atoms: _552  and  _554
REMARK  229  A    between atoms: _554  and  _555
REMARK  230  A    between atoms: _554  and  _557
REMARK  231  A    between atoms: _559  and  _561
REMARK  232  A    between atoms: _561  and  _562
REMARK  233  A    between atoms: _561  and  _564
REMARK  234  A    between atoms: _564  and  _565
REMARK  235  A    between atoms: _568  and  _570
REMARK  236  A    between atoms: _570  and  _571
REMARK  237  A    between atoms: _570  and  _573
REMARK  238  A    between atoms: _573  and  _574
REMARK  239  A    between atoms: _579  and  _580
REMARK  240  A    between atoms: _582  and  _584
REMARK  241  A    between atoms: _584  and  _585
REMARK  242  A    between atoms: _584  and  _587
REMARK  243  A    between atoms: _587  and  _588
REMARK  244  A    between atoms: _591  and  _593
REMARK  245  A    between atoms: _593  and  _594
REMARK  246  A    between atoms: _593  and  _596
REMARK  247  A    between atoms: _596  and  _597
REMARK  248  A    between atoms: _607  and  _609
REMARK  249  A    between atoms: _609  and  _610
REMARK  250  A    between atoms: _613  and  _615
REMARK  251  A    between atoms: _615  and  _616
REMARK  252  A    between atoms: _619  and  _621
REMARK  253  A    between atoms: _621  and  _622
REMARK  254  A    between atoms: _621  and  _624
REMARK  255  A    between atoms: _624  and  _625
REMARK  256  A    between atoms: _628  and  _630
REMARK  257  A    between atoms: _630  and  _631
REMARK  258  A    between atoms: _630  and  _633
REMARK  259  A    between atoms: _633  and  _634
REMARK  260  A    between atoms: _637  and  _639
REMARK  261  A    between atoms: _639  and  _640
REMARK  262  A    between atoms: _639  and  _642
REMARK  263  A    between atoms: _642  and  _643
REMARK  264  A    between atoms: _646  and  _648
REMARK  265  A    between atoms: _648  and  _649
REMARK  266  A    between atoms: _648  and  _651
REMARK  267  A    between atoms: _651  and  _652
REMARK  268  A    between atoms: _652  and  _653
REMARK  269  A    between atoms: _653  and  _654
REMARK  270  A    between atoms: _654  and  _655
REMARK  271  A    between atoms: _659  and  _661
REMARK  272  A    between atoms: _661  and  _662
REMARK  273  A    between atoms: _661  and  _664
REMARK  274  A    between atoms: _664  and  _665
REMARK  275  A    between atoms: _670  and  _672
REMARK  276  A    between atoms: _672  and  _673
REMARK  277  A    between atoms: _672  and  _675
REMARK  278  A    between atoms: _675  and  _676
REMARK  279  A    between atoms: _676  and  _677
REMARK  280  A    between atoms: _677  and  _678
REMARK  281  A    between atoms: _678  and  _679
REMARK  282  A    between atoms: _683  and  _685
REMARK  283  A    between atoms: _685  and  _686
REMARK  284  A    between atoms: _685  and  _688
REMARK  285  A    between atoms: _688  and  _689
REMARK  286  A    between atoms: _699  and  _701
REMARK  287  A    between atoms: _701  and  _702
REMARK  288  A    between atoms: _701  and  _704
REMARK  289  A    between atoms: _704  and  _705
REMARK  290  A    between atoms: _705  and  _706
REMARK  291  A    between atoms: _711  and  _713
REMARK  292  A    between atoms: _713  and  _714
REMARK  293  A    between atoms: _717  and  _719
REMARK  294  A    between atoms: _719  and  _720
REMARK  295  A    between atoms: _722  and  _724
REMARK  296  A    between atoms: _724  and  _725
REMARK  297  A    between atoms: _724  and  _727
REMARK  298  A    between atoms: _727  and  _728
REMARK  299  A    between atoms: _728  and  _729
REMARK  300  A    between atoms: _732  and  _734
REMARK  301  A    between atoms: _734  and  _735
REMARK  302  A    between atoms: _738  and  _740
REMARK  303  A    between atoms: _740  and  _741
REMARK  304  A    between atoms: _740  and  _743
REMARK  305  A    between atoms: _743  and  _744
REMARK  306  A    between atoms: _744  and  _745
REMARK  307  A    between atoms: _745  and  _746
REMARK  308  A    between atoms: _755  and  _757
REMARK  309  A    between atoms: _757  and  _758
REMARK  310  A    between atoms: _757  and  _760
REMARK  311  A    between atoms: _760  and  _761
REMARK  312  A    between atoms: _764  and  _766
REMARK  313  A    between atoms: _766  and  _767
REMARK  314  A    between atoms: _766  and  _769
REMARK  315  A    between atoms: _769  and  _770
REMARK  316  A    between atoms: _775  and  _776
REMARK  317  A    between atoms: _778  and  _780
REMARK  318  A    between atoms: _780  and  _781
REMARK  319  A    between atoms: _780  and  _783
REMARK  320  A    between atoms: _783  and  _784
REMARK  321  A    between atoms: _787  and  _789
REMARK  322  A    between atoms: _789  and  _790
REMARK  323  A    between atoms: _789  and  _792
REMARK  324  A    between atoms: _792  and  _793
REMARK  325  A    between atoms: _796  and  _798
REMARK  326  A    between atoms: _798  and  _799
REMARK  327  A    between atoms: _798  and  _801
REMARK  328  A    between atoms: _801  and  _802
REMARK  329  A    between atoms: _803  and  _805
REMARK  330  A    between atoms: _805  and  _806
REMARK  331  A    between atoms: _805  and  _808
REMARK  332  A    between atoms: _811  and  _813
REMARK  333  A    between atoms: _813  and  _814
REMARK  334  A    between atoms: _813  and  _816
REMARK  335  A    between atoms: _816  and  _817
REMARK  336  A    between atoms: _817  and  _818
REMARK  337  A    between atoms: _821  and  _823
REMARK  338  A    between atoms: _823  and  _824
REMARK  339  A    between atoms: _823  and  _826
REMARK  340  A    between atoms: _826  and  _827
REMARK  341  A    between atoms: _837  and  _839
REMARK  342  A    between atoms: _839  and  _840
REMARK  343  A    between atoms: _839  and  _842
REMARK  344  A    between atoms: _842  and  _843
REMARK  345  A    between atoms: _846  and  _848
REMARK  346  A    between atoms: _848  and  _849
REMARK  347  A    between atoms: _848  and  _851
REMARK  348  A    between atoms: _851  and  _852
REMARK  349  A    between atoms: _852  and  _853
REMARK  350  A    between atoms: _853  and  _854
REMARK  351  A    between atoms: _863  and  _865
REMARK  352  A    between atoms: _865  and  _866
REMARK  353  A    between atoms: _865  and  _868
REMARK  354  A    between atoms: _868  and  _869
REMARK  355  A    between atoms: _874  and  _875
REMARK                            x       y       z     vdW  Elec       q    Type
REMARK                         _______ _______ _______ _____ _____    ______ ____
ROOT
ATOM      1  CA  CYS A   8      52.730  12.357  -2.631  0.00  0.00    +0.149 C 
ENDROOT
BRANCH   1   3
ATOM      2  C   GLY A   7      52.336  14.618  -3.463  0.00  0.00    +0.243 C 
ATOM      3  N   CYS A   8      52.363  13.748  -2.459  0.00  0.00    -0.297 N 
ATOM      4  H   CYS A   8      52.109  14.081  -1.507  0.00  0.00    +0.150 HD
ATOM      5  O   GLY A   7      52.632  14.341  -4.626  0.00  0.00    -0.273 OA
BRANCH   2   6
ATOM      6  CA  GLY A   7      51.888  16.007  -3.077  0.00  0.00    +0.176 C 
BRANCH   6   9
ATOM      7  C   LEU A   6      51.578  18.254  -3.833  0.00  0.00    +0.243 C 
ATOM      8  O   LEU A   6      51.068  18.543  -2.759  0.00  0.00    -0.273 OA
ATOM      9  N   GLY A   7      51.958  17.018  -4.119  0.00  0.00    -0.295 N 
ATOM     10  H   GLY A   7      52.300  16.775  -5.071  0.00  0.00    +0.150 HD
BRANCH   7  11
ATOM     11  CA  LEU A   6      51.814  19.332  -4.874  0.00  0.00    +0.178 C 
BRANCH  11  13
ATOM     12  C   TRP A   5      49.958  20.537  -5.938  0.00  0.00    +0.241 C 
ATOM     13  N   LEU A   6      50.668  20.236  -4.856  0.00  0.00    -0.295 N 
ATOM     14  H   LEU A   6      50.393  20.666  -3.950  0.00  0.00    +0.150 HD
ATOM     15  O   TRP A   5      50.253  20.147  -7.069  0.00  0.00    -0.273 OA
BRANCH  12  16
ATOM     16  CA  TRP A   5      48.748  21.453  -5.709  0.00  0.00    +0.149 C 
BRANCH  16  19
ATOM     17  C   GLU A   4      48.914  23.856  -6.112  0.00  0.00    +0.241 C 
ATOM     18  O   GLU A   4      48.636  24.166  -4.949  0.00  0.00    -0.273 OA
ATOM     19  N   TRP A   5      48.899  22.610  -6.572  0.00  0.00    -0.297 N 
ATOM     20  H   TRP A   5      49.000  22.457  -7.596  0.00  0.00    +0.150 HD
BRANCH  17  21
ATOM     21  CA  GLU A   4      49.326  24.920  -7.114  0.00  0.00    +0.149 C 
BRANCH  21  23
ATOM     22  C   VAL A   3      47.978  26.758  -7.994  0.00  0.00    +0.241 C 
ATOM     23  N   GLU A   4      48.471  26.084  -6.959  0.00  0.00    -0.297 N 
ATOM     24  H   GLU A   4      48.234  26.404  -5.998  0.00  0.00    +0.150 HD
ATOM     25  O   VAL A   3      48.227  26.479  -9.174  0.00  0.00    -0.273 OA
BRANCH  22  26
ATOM     26  CA  VAL A   3      47.048  27.916  -7.648  0.00  0.00    +0.149 C 
BRANCH  26  29
ATOM     27  C   CYS A   2      47.454  30.274  -8.179  0.00  0.00    +0.241 C 
ATOM     28  O   CYS A   2      47.367  30.635  -7.006  0.00  0.00    -0.273 OA
ATOM     29  N   VAL A   3      47.259  29.021  -8.579  0.00  0.00    -0.297 N 
ATOM     30  H   VAL A   3      47.257  28.819  -9.599  0.00  0.00    +0.150 HD
BRANCH  27  31
ATOM     31  CA  CYS A   2      47.792  31.279  -9.267  0.00  0.00    +0.148 C 
BRANCH  31  33
ATOM     32  C   THR A   1      45.976  32.823  -9.770  0.00  0.00    +0.241 C 
ATOM     33  N   CYS A   2      47.016  32.492  -9.012  0.00  0.00    -0.297 N 
ATOM     34  H   CYS A   2      47.284  33.110  -8.219  0.00  0.00    +0.150 HD
ATOM     35  O   THR A   1      45.734  32.284 -10.852  0.00  0.00    -0.274 OA
BRANCH  32  36
ATOM     36  CA  THR A   1      45.071  33.926  -9.235  0.00  0.00    +0.172 C 
BRANCH  36  37
ATOM     37  N   THR A   1      44.865  34.972 -10.235  0.00  0.00    -0.236 NA
ATOM     38  H   THR A   1      44.592  34.697 -11.200  0.00  0.00    +0.142 HD
ENDBRANCH  36  37
BRANCH  36  39
ATOM     39  CB  THR A   1      43.719  33.282  -8.834  0.00  0.00    +0.135 C 
ATOM     40  CG2 THR A   1      43.903  32.214  -7.772  0.00  0.00    +0.034 C 
BRANCH  39  41
ATOM     41  OG1 THR A   1      42.830  34.287  -8.335  0.00  0.00    -0.383 OA
ATOM     42  HG1 THR A   1      41.970  33.868  -8.081  0.00  0.00    +0.210 HD
ENDBRANCH  39  41
ENDBRANCH  36  39
ENDBRANCH  32  36
ENDBRANCH  31  33
BRANCH  31  43
ATOM     43  CB  CYS A   2      49.314  31.529  -9.272  0.00  0.00    +0.027 C 
ATOM     44  CG2 CYS A   2      50.072  30.203  -9.353  0.00  0.00    +0.002 C 
BRANCH  43  45
ATOM     45  CG1 CYS A   2      49.699  32.424 -10.450  0.00  0.00    +0.002 C 
ATOM     46  CD1 CYS A   2      51.116  32.963 -10.388  0.00  0.00    +0.000 C 
ENDBRANCH  43  45
ENDBRANCH  31  43
ENDBRANCH  27  31
ENDBRANCH  26  29
BRANCH  26  47
ATOM     47  CB  VAL A   3      45.606  27.410  -7.711  0.00  0.00    +0.039 C 
BRANCH  47  48
ATOM     48  CG  VAL A   3      44.557  28.418  -7.299  0.00  0.00    +0.087 C 
BRANCH  48  49
ATOM     49  CD  VAL A   3      43.168  28.008  -7.741  0.00  0.00    +0.219 C 
ATOM     50  NE2 VAL A   3      42.537  27.135  -6.972  0.00  0.00    -0.329 N 
ATOM     51 HE21 VAL A   3      42.988  26.787  -6.102  0.00  0.00    +0.145 HD
ATOM     52 HE22 VAL A   3      41.590  26.797  -7.238  0.00  0.00    +0.145 HD
ATOM     53  OE1 VAL A   3      42.678  28.451  -8.780  0.00  0.00    -0.275 OA
ENDBRANCH  48  49
ENDBRANCH  47  48
ENDBRANCH  26  47
ENDBRANCH  22  26
ENDBRANCH  21  23
BRANCH  21  54
ATOM     54  CB  GLU A   4      50.813  25.227  -6.835  0.00  0.00    +0.027 C 
ATOM     55  CG2 GLU A   4      51.224  26.590  -7.371  0.00  0.00    +0.002 C 
ATOM     56  CG1 GLU A   4      51.692  24.119  -7.404  0.00  0.00    +0.002 C 
ENDBRANCH  21  54
ENDBRANCH  17  21
ENDBRANCH  16  19
BRANCH  16  57
ATOM     57  CB  TRP A   5      47.406  20.707  -5.944  0.00  0.00    +0.027 C 
ATOM     58  CG2 TRP A   5      47.232  20.287  -7.394  0.00  0.00    +0.002 C 
BRANCH  57  59
ATOM     59  CG1 TRP A   5      47.301  19.450  -5.068  0.00  0.00    +0.002 C 
ATOM     60  CD1 TRP A   5      47.474  19.705  -3.589  0.00  0.00    +0.000 C 
ENDBRANCH  57  59
ENDBRANCH  16  57
ENDBRANCH  12  16
ENDBRANCH  11  13
BRANCH  11  61
ATOM     61  CB  LEU A   6      53.086  20.088  -4.498  0.00  0.00    +0.166 C 
BRANCH  61  62
ATOM     62  O   LEU A   6      53.269  21.227  -5.314  0.00  0.00    -0.380 OA
ATOM     63  H   LEU A   6      52.497  21.837  -5.205  0.00  0.00    +0.211 HD
ENDBRANCH  61  62
ENDBRANCH  11  61
ENDBRANCH   7  11
ENDBRANCH   6   9
ENDBRANCH   2   6
ENDBRANCH   1   3
BRANCH   1  64
ATOM     64  C   CYS A   8      51.783  11.485  -1.819  0.00  0.00    +0.228 C 
ATOM     65  O   CYS A   8      51.139  11.954  -0.878  0.00  0.00    -0.286 OA
ENDBRANCH   1  64
BRANCH   1  66
ATOM     66  CB  CYS A   8      54.186  12.125  -2.214  0.00  0.00    +0.096 C 
BRANCH  66  67
ATOM     67  SG  CYS A   8      54.575  12.506  -0.486  0.00  0.00    -0.080 S 
BRANCH  67  68
ATOM     68  SG  CYS A   2      55.317  14.442  -0.538  0.00  0.00    -0.080 S 
BRANCH  68  69
ATOM     69  CB  CYS A   2      57.105  14.235  -0.762  0.00  0.00    +0.098 C 
BRANCH  69  70
ATOM     70  CA  CYS A   2      57.896  14.071   0.543  0.00  0.00    +0.160 C 
BRANCH  70  71
ATOM     71  N   CYS A   2      59.340  14.064   0.287  0.00  0.00    -0.296 N 
ATOM     72  C   THR A   1      60.218  14.026   1.285  0.00  0.00    +0.241 C 
ATOM     73  O   THR A   1      59.885  13.937   2.460  0.00  0.00    -0.274 OA
ATOM     74  H   CYS A   2      59.684  14.089  -0.694  0.00  0.00    +0.150 HD
BRANCH  72  75
ATOM     75  CA  THR A   1      61.695  14.099   0.913  0.00  0.00    +0.172 C 
BRANCH  75  76
ATOM     76  CB  THR A   1      62.010  15.543   0.495  0.00  0.00    +0.135 C 
ATOM     77  CG2 THR A   1      61.900  16.483   1.680  0.00  0.00    +0.034 C 
BRANCH  76  78
ATOM     78  OG1 THR A   1      63.336  15.600  -0.038  0.00  0.00    -0.383 OA
ATOM     79  HG1 THR A   1      63.542  16.530  -0.308  0.00  0.00    +0.210 HD
ENDBRANCH  76  78
ENDBRANCH  75  76
BRANCH  75  80
ATOM     80  N   THR A   1      62.053  13.173  -0.144  0.00  0.00    -0.236 NA
ATOM     81  H   THR A   1      62.519  13.547  -0.996  0.00  0.00    +0.142 HD
ENDBRANCH  75  80
ENDBRANCH  72  75
ENDBRANCH  70  71
BRANCH  70  82
ATOM     82  C   CYS A   2      57.465  12.790   1.263  0.00  0.00    +0.242 C 
ATOM     83  O   CYS A   2      56.770  12.839   2.285  0.00  0.00    -0.273 OA
ATOM     84  N   VAL A   3      57.900  11.651   0.732  0.00  0.00    -0.297 N 
ATOM     85  H   VAL A   3      58.508  11.690  -0.111  0.00  0.00    +0.150 HD
BRANCH  84  86
ATOM     86  CA  VAL A   3      57.552  10.344   1.294  0.00  0.00    +0.149 C 
BRANCH  86  87
ATOM     87  C   VAL A   3      58.090  10.215   2.720  0.00  0.00    +0.241 C 
ATOM     88  O   VAL A   3      57.359   9.829   3.633  0.00  0.00    -0.273 OA
ATOM     89  N   GLU A   4      59.357  10.572   2.911  0.00  0.00    -0.297 N 
ATOM     90  H   GLU A   4      59.897  10.969   2.116  0.00  0.00    +0.150 HD
BRANCH  89  91
ATOM     91  CA  GLU A   4      60.010  10.419   4.214  0.00  0.00    +0.149 C 
BRANCH  91  92
ATOM     92  C   GLU A   4      59.361  11.272   5.301  0.00  0.00    +0.241 C 
ATOM     93  O   GLU A   4      59.203  10.822   6.428  0.00  0.00    -0.273 OA
ATOM     94  N   TRP A   5      58.978  12.500   4.969  0.00  0.00    -0.297 N 
ATOM     95  H   TRP A   5      59.161  12.859   4.010  0.00  0.00    +0.150 HD
BRANCH  94  96
ATOM     96  CA  TRP A   5      58.298  13.349   5.951  0.00  0.00    +0.153 C 
BRANCH  96  97
ATOM     97  C   TRP A   5      56.857  12.892   6.214  0.00  0.00    +0.241 C 
ATOM     98  O   TRP A   5      56.397  12.915   7.359  0.00  0.00    -0.273 OA
ATOM     99  N   LEU A   6      56.157  12.451   5.175  0.00  0.00    -0.298 N 
ATOM    100  H   LEU A   6      56.561  12.516   4.219  0.00  0.00    +0.150 HD
BRANCH  99 101
ATOM    101  CA  LEU A   6      54.816  11.871   5.359  0.00  0.00    +0.137 C 
BRANCH 101 102
ATOM    102  C   LEU A   6      54.861  10.702   6.352  0.00  0.00    +0.227 C 
ATOM    103  O   LEU A   6      54.045  10.632   7.270  0.00  0.00    -0.286 OA
ENDBRANCH 101 102
BRANCH 101 104
ATOM    104  CB  LEU A   6      54.223  11.434   4.016  0.00  0.00    +0.028 C 
BRANCH 104 105
ATOM    105  CG  LEU A   6      52.872  10.709   3.998  0.00  0.00    +0.002 C 
ATOM    106  CD2 LEU A   6      51.813  11.447   4.801  0.00  0.00    +0.000 C 
ATOM    107  CD1 LEU A   6      52.422  10.529   2.557  0.00  0.00    +0.000 C 
ENDBRANCH 104 105
ENDBRANCH 101 104
ENDBRANCH  99 101
ENDBRANCH  96  97
BRANCH  96 108
ATOM    108  CB  TRP A   5      58.374  14.822   5.550  0.00  0.00    +0.057 C 
BRANCH 108 109
ATOM    109  CG  TRP A   5      59.718  15.418   5.888  0.00  0.00    -0.002 A 
ATOM    110  CD2 TRP A   5      60.098  16.027   7.127  0.00  0.00    +0.013 A 
ATOM    111  CE3 TRP A   5      59.426  16.283   8.328  0.00  0.00    +0.001 A 
ATOM    112  CZ3 TRP A   5      60.113  16.924   9.351  0.00  0.00    +0.000 A 
ATOM    113  CH2 TRP A   5      61.455  17.308   9.195  0.00  0.00    +0.001 A 
ATOM    114  CZ2 TRP A   5      62.135  17.072   8.031  0.00  0.00    +0.017 A 
ATOM    115  CE2 TRP A   5      61.445  16.429   7.000  0.00  0.00    +0.056 A 
ATOM    116  NE1 TRP A   5      61.863  16.074   5.745  0.00  0.00    -0.352 N 
ATOM    117  HE1 TRP A   5      62.813  16.238   5.354  0.00  0.00    +0.166 HD
ATOM    118  CD1 TRP A   5      60.822  15.466   5.088  0.00  0.00    +0.068 A 
ENDBRANCH 108 109
ENDBRANCH  96 108
ENDBRANCH  94  96
ENDBRANCH  91  92
BRANCH  91 119
ATOM    119  CB  GLU A   4      61.512  10.720   4.102  0.00  0.00    +0.041 C 
BRANCH 119 120
ATOM    120  CG  GLU A   4      62.299   9.567   3.498  0.00  0.00    +0.116 C 
BRANCH 120 121
ATOM    121  CD  GLU A   4      63.656   9.981   2.954  0.00  0.00    +0.365 C 
ATOM    122  OE2 GLU A   4      64.245  10.961   3.468  0.00  0.00    -0.246 OA
ATOM    123  OE1 GLU A   4      64.130   9.320   2.003  0.00  0.00    -0.246 OA
ENDBRANCH 120 121
ENDBRANCH 119 120
ENDBRANCH  91 119
ENDBRANCH  89  91
ENDBRANCH  86  87
BRANCH  86 124
ATOM    124  CB  VAL A   3      58.084   9.202   0.396  0.00  0.00    +0.027 C 
ATOM    125  CG2 VAL A   3      58.084   7.861   1.116  0.00  0.00    +0.002 C 
ATOM    126  CG1 VAL A   3      57.262   9.119  -0.880  0.00  0.00    +0.002 C 
ENDBRANCH  86 124
ENDBRANCH  84  86
ENDBRANCH  70  82
ENDBRANCH  69  70
ENDBRANCH  68  69
ENDBRANCH  67  68
ENDBRANCH  66  67
ENDBRANCH   1  66
TORSDOF 55
REMARK  Name = ../refined-set-2016/4pge/4pge_pocket.pdb
REMARK  355 active torsions:
REMARK  status: ('A' for Active; 'I' for Inactive)
REMARK    1  A    between atoms: _1  and  _3
REMARK    2  A    between atoms: _3  and  _4
REMARK    3  A    between atoms: _3  and  _6
REMARK    4  A    between atoms: _6  and  _7
REMARK    5  A    between atoms: _10  and  _12
REMARK    6  A    between atoms: _12  and  _13
REMARK    7  A    between atoms: _12  and  _15
REMARK    8  A    between atoms: _15  and  _16
REMARK    9  A    between atoms: _16  and  _17
REMARK   10  A    between atoms: _17  and  _18
REMARK   11  A    between atoms: _27  and  _29
REMARK   12  A    between atoms: _29  and  _30
REMARK   13  A    between atoms: _29  and  _32
REMARK   14  A    between atoms: _32  and  _33
REMARK   15  A    between atoms: _38  and  _39
REMARK   16  A    between atoms: _41  and  _43
REMARK   17  A    between atoms: _43  and  _44
REMARK   18  A    between atoms: _43  and  _46
REMARK   19  A    between atoms: _46  and  _47
REMARK   20  A    between atoms: _53  and  _55
REMARK   21  A    between atoms: _55  and  _56
REMARK   22  A    between atoms: _55  and  _58
REMARK   23  A    between atoms: _61  and  _63
REMARK   24  A    between atoms: _63  and  _64
REMARK   25  A    between atoms: _63  and  _66
REMARK   26  A    between atoms: _66  and  _67
REMARK   27  A    between atoms: _70  and  _72
REMARK   28  A    between atoms: _72  and  _73
REMARK   29  A    between atoms: _76  and  _78
REMARK   30  A    between atoms: _78  and  _79
REMARK   31  A    between atoms: _78  and  _81
REMARK   32  A    between atoms: _81  and  _82
REMARK   33  A    between atoms: _87  and  _88
REMARK   34  A    between atoms: _90  and  _92
REMARK   35  A    between atoms: _92  and  _93
REMARK   36  A    between atoms: _92  and  _95
REMARK   37  A    between atoms: _95  and  _96
REMARK   38  A    between atoms: _96  and  _97
REMARK   39  A    between atoms: _99  and  _101
REMARK   40  A    between atoms: _101  and  _102
REMARK   41  A    between atoms: _101  and  _104
REMARK   42  A    between atoms: _104  and  _105
REMARK   43  A    between atoms: _105  and  _106
REMARK   44  A    between atoms: _109  and  _111
REMARK   45  A    between atoms: _111  and  _112
REMARK   46  A    between atoms: _111  and  _114
REMARK   47  A    between atoms: _117  and  _119
REMARK   48  A    between atoms: _119  and  _120
REMARK   49  A    between atoms: _122  and  _124
REMARK   50  A    between atoms: _124  and  _125
REMARK   51  A    between atoms: _124  and  _127
REMARK   52  A    between atoms: _130  and  _132
REMARK   53  A    between atoms: _132  and  _133
REMARK   54  A    between atoms: _132  and  _135
REMARK   55  A    between atoms: _135  and  _136
REMARK   56  A    between atoms: _142  and  _144
REMARK   57  A    between atoms: _144  and  _145
REMARK   58  A    between atoms: _144  and  _147
REMARK   59  A    between atoms: _150  and  _152
REMARK   60  A    between atoms: _152  and  _153
REMARK   61  A    between atoms: _152  and  _155
REMARK   62  A    between atoms: _155  and  _156
REMARK   63  A    between atoms: _161  and  _162
REMARK   64  A    between atoms: _164  and  _166
REMARK   65  A    between atoms: _166  and  _167
REMARK   66  A    between atoms: _166  and  _169
REMARK   67  A    between atoms: _169  and  _170
REMARK   68  A    between atoms: _170  and  _171
REMARK   69  A    between atoms: _173  and  _175
REMARK   70  A    between atoms: _175  and  _176
REMARK   71  A    between atoms: _175  and  _178
REMARK   72  A    between atoms: _178  and  _179
REMARK   73  A    between atoms: _179  and  _180
REMARK   74  A    between atoms: _183  and  _185
REMARK   75  A    between atoms: _185  and  _186
REMARK   76  A    between atoms: _185  and  _188
REMARK   77  A    between atoms: _188  and  _189
REMARK   78  A    between atoms: _189  and  _190
REMARK   79  A    between atoms: _193  and  _195
REMARK   80  A    between atoms: _195  and  _196
REMARK   81  A    between atoms: _195  and  _198
REMARK   82  A    between atoms: _198  and  _199
REMARK   83  A    between atoms: _204  and  _205
REMARK   84  A    between atoms: _207  and  _209
REMARK   85  A    between atoms: _209  and  _210
REMARK   86  A    between atoms: _209  and  _212
REMARK   87  A    between atoms: _212  and  _213
REMARK   88  A    between atoms: _213  and  _214
REMARK   89  A    between atoms: _214  and  _215
REMARK   90  A    between atoms: _224  and  _226
REMARK   91  A    between atoms: _226  and  _227
REMARK   92  A    between atoms: _226  and  _229
REMARK   93  A    between atoms: _229  and  _230
REMARK   94  A    between atoms: _230  and  _231
REMARK   95  A    between atoms: _234  and  _236
REMARK   96  A    between atoms: _236  and  _237
REMARK   97  A    between atoms: _236  and  _239
REMARK   98  A    between atoms: _239  and  _240
REMARK   99  A    between atoms: _243  and  _245
REMARK  100  A    between atoms: _245  and  _246
REMARK  101  A    between atoms: _245  and  _248
REMARK  102  A    between atoms: _248  and  _249
REMARK  103  A    between atoms: _249  and  _250
REMARK  104  A    between atoms: _255  and  _257
REMARK  105  A    between atoms: _257  and  _258
REMARK  106  A    between atoms: _257  and  _260
REMARK  107  A    between atoms: _260  and  _261
REMARK  108  A    between atoms: _261  and  _262
REMARK  109  A    between atoms: _262  and  _263
REMARK  110  A    between atoms: _263  and  _264
REMARK  111  A    between atoms: _268  and  _270
REMARK  112  A    between atoms: _270  and  _271
REMARK  113  A    between atoms: _274  and  _276
REMARK  114  A    between atoms: _276  and  _277
REMARK  115  A    between atoms: _279  and  _281
REMARK  116  A    between atoms: _281  and  _282
REMARK  117  A    between atoms: _281  and  _284
REMARK  118  A    between atoms: _284  and  _285
REMARK  119  A    between atoms: _290  and  _292
REMARK  120  A    between atoms: _292  and  _293
REMARK  121  A    between atoms: _292  and  _295
REMARK  122  A    between atoms: _295  and  _296
REMARK  123  A    between atoms: _296  and  _297
REMARK  124  A    between atoms: _300  and  _302
REMARK  125  A    between atoms: _302  and  _303
REMARK  126  A    between atoms: _302  and  _305
REMARK  127  A    between atoms: _305  and  _306
REMARK  128  A    between atoms: _306  and  _307
REMARK  129  A    between atoms: _312  and  _314
REMARK  130  A    between atoms: _314  and  _315
REMARK  131  A    between atoms: _314  and  _317
REMARK  132  A    between atoms: _317  and  _318
REMARK  133  A    between atoms: _320  and  _322
REMARK  134  A    between atoms: _322  and  _323
REMARK  135  A    between atoms: _322  and  _325
REMARK  136  A    between atoms: _325  and  _326
REMARK  137  A    between atoms: _332  and  _334
REMARK  138  A    between atoms: _334  and  _335
REMARK  139  A    between atoms: _334  and  _337
REMARK  140  A    between atoms: _340  and  _342
REMARK  141  A    between atoms: _342  and  _343
REMARK  142  A    between atoms: _342  and  _345
REMARK  143  A    between atoms: _345  and  _346
REMARK  144  A    between atoms: _349  and  _351
REMARK  145  A    between atoms: _351  and  _352
REMARK  146  A    between atoms: _351  and  _354
REMARK  147  A    between atoms: _354  and  _355
REMARK  148  A    between atoms: _358  and  _360
REMARK  149  A    between atoms: _360  and  _361
REMARK  150  A    between atoms: _360  and  _363
REMARK  151  A    between atoms: _363  and  _364
REMARK  152  A    between atoms: _367  and  _369
REMARK  153  A    between atoms: _369  and  _370
REMARK  154  A    between atoms: _369  and  _372
REMARK  155  A    between atoms: _372  and  _373
REMARK  156  A    between atoms: _376  and  _378
REMARK  157  A    between atoms: _378  and  _379
REMARK  158  A    between atoms: _378  and  _381
REMARK  159  A    between atoms: _381  and  _382
REMARK  160  A    between atoms: _387  and  _388
REMARK  161  A    between atoms: _390  and  _392
REMARK  162  A    between atoms: _392  and  _393
REMARK  163  A    between atoms: _392  and  _395
REMARK  164  A    between atoms: _395  and  _396
REMARK  165  A    between atoms: _401  and  _402
REMARK  166  A    between atoms: _404  and  _406
REMARK  167  A    between atoms: _406  and  _407
REMARK  168  A    between atoms: _406  and  _409
REMARK  169  A    between atoms: _409  and  _410
REMARK  170  A    between atoms: _413  and  _415
REMARK  171  A    between atoms: _415  and  _416
REMARK  172  A    between atoms: _415  and  _418
REMARK  173  A    between atoms: _418  and  _419
REMARK  174  A    between atoms: _422  and  _424
REMARK  175  A    between atoms: _424  and  _425
REMARK  176  A    between atoms: _424  and  _427
REMARK  177  A    between atoms: _427  and  _428
REMARK  178  A    between atoms: _428  and  _429
REMARK  179  A    between atoms: _434  and  _436
REMARK  180  A    between atoms: _436  and  _437
REMARK  181  A    between atoms: _436  and  _439
REMARK  182  A    between atoms: _442  and  _444
REMARK  183  A    between atoms: _444  and  _445
REMARK  184  A    between atoms: _444  and  _447
REMARK  185  A    between atoms: _447  and  _448
REMARK  186  A    between atoms: _451  and  _453
REMARK  187  A    between atoms: _453  and  _454
REMARK  188  A    between atoms: _453  and  _456
REMARK  189  A    between atoms: _456  and  _457
REMARK  190  A    between atoms: _459  and  _461
REMARK  191  A    between atoms: _461  and  _462
REMARK  192  A    between atoms: _464  and  _466
REMARK  193  A    between atoms: _466  and  _467
REMARK  194  A    between atoms: _466  and  _469
REMARK  195  A    between atoms: _469  and  _470
REMARK  196  A    between atoms: _470  and  _802
REMARK  197  A    between atoms: _471  and  _473
REMARK  198  A    between atoms: _473  and  _474
REMARK  199  A    between atoms: _473  and  _476
REMARK  200  A    between atoms: _476  and  _477
REMARK  201  A    between atoms: _482  and  _483
REMARK  202  A    between atoms: _485  and  _487
REMARK  203  A    between atoms: _487  and  _488
REMARK  204  A    between atoms: _487  and  _490
REMARK  205  A    between atoms: _490  and  _491
REMARK  206  A    between atoms: _491  and  _492
REMARK  207  A    between atoms: _497  and  _499
REMARK  208  A    between atoms: _499  and  _500
REMARK  209  A    between atoms: _499  and  _502
REMARK  210  A    between atoms: _502  and  _503
REMARK  211  A    between atoms: _503  and  _504
REMARK  212  A    between atoms: _509  and  _511
REMARK  213  A    between atoms: _511  and  _512
REMARK  214  A    between atoms: _511  and  _514
REMARK  215  A    between atoms: _514  and  _515
REMARK  216  A    between atoms: _520  and  _521
REMARK  217  A    between atoms: _523  and  _525
REMARK  218  A    between atoms: _525  and  _526
REMARK  219  A    between atoms: _529  and  _531
REMARK  220  A    between atoms: _531  and  _532
REMARK  221  A    between atoms: _531  and  _534
REMARK  222  A    between atoms: _534  and  _535
REMARK  223  A    between atoms: _540  and  _541
REMARK  224  A    between atoms: _543  and  _545
REMARK  225  A    between atoms: _545  and  _546
REMARK  226  A    between atoms: _545  and  _548
REMARK  227  A    between atoms: _548  and  _549
REMARK  228  A    between atoms: _552  and  _554
REMARK  229  A    between atoms: _554  and  _555
REMARK  230  A    between atoms: _554  and  _557
REMARK  231  A    between atoms: _559  and  _561
REMARK  232  A    between atoms: _561  and  _562
REMARK  233  A    between atoms: _561  and  _564
REMARK  234  A    between atoms: _564  and  _565
REMARK  235  A    between atoms: _568  and  _570
REMARK  236  A    between atoms: _570  and  _571
REMARK  237  A    between atoms: _570  and  _573
REMARK  238  A    between atoms: _573  and  _574
REMARK  239  A    between atoms: _579  and  _580
REMARK  240  A    between atoms: _582  and  _584
REMARK  241  A    between atoms: _584  and  _585
REMARK  242  A    between atoms: _584  and  _587
REMARK  243  A    between atoms: _587  and  _588
REMARK  244  A    between atoms: _591  and  _593
REMARK  245  A    between atoms: _593  and  _594
REMARK  246  A    between atoms: _593  and  _596
REMARK  247  A    between atoms: _596  and  _597
REMARK  248  A    between atoms: _607  and  _609
REMARK  249  A    between atoms: _609  and  _610
REMARK  250  A    between atoms: _613  and  _615
REMARK  251  A    between atoms: _615  and  _616
REMARK  252  A    between atoms: _619  and  _621
REMARK  253  A    between atoms: _621  and  _622
REMARK  254  A    between atoms: _621  and  _624
REMARK  255  A    between atoms: _624  and  _625
REMARK  256  A    between atoms: _628  and  _630
REMARK  257  A    between atoms: _630  and  _631
REMARK  258  A    between atoms: _630  and  _633
REMARK  259  A    between atoms: _633  and  _634
REMARK  260  A    between atoms: _637  and  _639
REMARK  261  A    between atoms: _639  and  _640
REMARK  262  A    between atoms: _639  and  _642
REMARK  263  A    between atoms: _642  and  _643
REMARK  264  A    between atoms: _646  and  _648
REMARK  265  A    between atoms: _648  and  _649
REMARK  266  A    between atoms: _648  and  _651
REMARK  267  A    between atoms: _651  and  _652
REMARK  268  A    between atoms: _652  and  _653
REMARK  269  A    between atoms: _653  and  _654
REMARK  270  A    between atoms: _654  and  _655
REMARK  271  A    between atoms: _659  and  _661
REMARK  272  A    between atoms: _661  and  _662
REMARK  273  A    between atoms: _661  and  _664
REMARK  274  A    between atoms: _664  and  _665
REMARK  275  A    between atoms: _670  and  _672
REMARK  276  A    between atoms: _672  and  _673
REMARK  277  A    between atoms: _672  and  _675
REMARK  278  A    between atoms: _675  and  _676
REMARK  279  A    between atoms: _676  and  _677
REMARK  280  A    between atoms: _677  and  _678
REMARK  281  A    between atoms: _678  and  _679
REMARK  282  A    between atoms: _683  and  _685
REMARK  283  A    between atoms: _685  and  _686
REMARK  284  A    between atoms: _685  and  _688
REMARK  285  A    between atoms: _688  and  _689
REMARK  286  A    between atoms: _699  and  _701
REMARK  287  A    between atoms: _701  and  _702
REMARK  288  A    between atoms: _701  and  _704
REMARK  289  A    between atoms: _704  and  _705
REMARK  290  A    between atoms: _705  and  _706
REMARK  291  A    between atoms: _711  and  _713
REMARK  292  A    between atoms: _713  and  _714
REMARK  293  A    between atoms: _717  and  _719
REMARK  294  A    between atoms: _719  and  _720
REMARK  295  A    between atoms: _722  and  _724
REMARK  296  A    between atoms: _724  and  _725
REMARK  297  A    between atoms: _724  and  _727
REMARK  298  A    between atoms: _727  and  _728
REMARK  299  A    between atoms: _728  and  _729
REMARK  300  A    between atoms: _732  and  _734
REMARK  301  A    between atoms: _734  and  _735
REMARK  302  A    between atoms: _738  and  _740
REMARK  303  A    between atoms: _740  and  _741
REMARK  304  A    between atoms: _740  and  _743
REMARK  305  A    between atoms: _743  and  _744
REMARK  306  A    between atoms: _744  and  _745
REMARK  307  A    between atoms: _745  and  _746
REMARK  308  A    between atoms: _755  and  _757
REMARK  309  A    between atoms: _757  and  _758
REMARK  310  A    between atoms: _757  and  _760
REMARK  311  A    between atoms: _760  and  _761
REMARK  312  A    between atoms: _764  and  _766
REMARK  313  A    between atoms: _766  and  _767
REMARK  314  A    between atoms: _766  and  _769
REMARK  315  A    between atoms: _769  and  _770
REMARK  316  A    between atoms: _775  and  _776
REMARK  317  A    between atoms: _778  and  _780
REMARK  318  A    between atoms: _780  and  _781
REMARK  319  A    between atoms: _780  and  _783
REMARK  320  A    between atoms: _783  and  _784
REMARK  321  A    between atoms: _787  and  _789
REMARK  322  A    between atoms: _789  and  _790
REMARK  323  A    between atoms: _789  and  _792
REMARK  324  A    between atoms: _792  and  _793
REMARK  325  A    between atoms: _796  and  _798
REMARK  326  A    between atoms: _798  and  _799
REMARK  327  A    between atoms: _798  and  _801
REMARK  328  A    between atoms: _801  and  _802
REMARK  329  A    between atoms: _803  and  _805
REMARK  330  A    between atoms: _805  and  _806
REMARK  331  A    between atoms: _805  and  _808
REMARK  332  A    between atoms: _811  and  _813
REMARK  333  A    between atoms: _813  and  _814
REMARK  334  A    between atoms: _813  and  _816
REMARK  335  A    between atoms: _816  and  _817
REMARK  336  A    between atoms: _817  and  _818
REMARK  337  A    between atoms: _821  and  _823
REMARK  338  A    between atoms: _823  and  _824
REMARK  339  A    between atoms: _823  and  _826
REMARK  340  A    between atoms: _826  and  _827
REMARK  341  A    between atoms: _837  and  _839
REMARK  342  A    between atoms: _839  and  _840
REMARK  343  A    between atoms: _839  and  _842
REMARK  344  A    between atoms: _842  and  _843
REMARK  345  A    between atoms: _846  and  _848
REMARK  346  A    between atoms: _848  and  _849
REMARK  347  A    between atoms: _848  and  _851
REMARK  348  A    between atoms: _851  and  _852
REMARK  349  A    between atoms: _852  and  _853
REMARK  350  A    between atoms: _853  and  _854
REMARK  351  A    between atoms: _863  and  _865
REMARK  352  A    between atoms: _865  and  _866
REMARK  353  A    between atoms: _865  and  _868
REMARK  354  A    between atoms: _868  and  _869
REMARK  355  A    between atoms: _874  and  _875
REMARK                            x       y       z     vdW  Elec       q    Type
REMARK                         _______ _______ _______ _____ _____    ______ ____
ROOT
ATOM      1  CA  TYR A   4      49.249  24.477 -11.597  0.00  0.00    +0.153 C 
ENDROOT
BRANCH   1   4
ATOM      2  C   GLN A   3      49.406  22.209 -10.677  0.00  0.00    +0.241 C 
ATOM      3  O   GLN A   3      49.257  22.579  -9.504  0.00  0.00    -0.273 OA
ATOM      4  N   TYR A   4      49.376  23.026 -11.726  0.00  0.00    -0.297 N 
ATOM      5  H   TYR A   4      49.446  22.615 -12.679  0.00  0.00    +0.150 HD
BRANCH   2   6
ATOM      6  CA  GLN A   3      49.627  20.743 -10.997  0.00  0.00    +0.149 C 
BRANCH   6   8
ATOM      7  C   GLN A   2      51.422  19.280 -10.280  0.00  0.00    +0.241 C 
ATOM      8  N   GLN A   3      50.468  20.151  -9.980  0.00  0.00    -0.297 N 
ATOM      9  H   GLN A   3      50.320  20.416  -8.985  0.00  0.00    +0.150 HD
ATOM     10  O   GLN A   2      51.663  18.909 -11.431  0.00  0.00    -0.273 OA
BRANCH   7  11
ATOM     11  CA  GLN A   2      52.206  18.720  -9.111  0.00  0.00    +0.149 C 
BRANCH  11  14
ATOM     12  C   TYR A   1      52.259  16.460  -8.206  0.00  0.00    +0.239 C 
ATOM     13  O   TYR A   1      52.501  16.837  -7.061  0.00  0.00    -0.274 OA
ATOM     14  N   GLN A   2      52.221  17.275  -9.250  0.00  0.00    -0.297 N 
ATOM     15  H   GLN A   2      52.201  16.864 -10.205  0.00  0.00    +0.150 HD
BRANCH  12  16
ATOM     16  CA  TYR A   1      52.004  14.993  -8.511  0.00  0.00    +0.149 C 
BRANCH  16  17
ATOM     17  N   TYR A   1      52.598  14.097  -7.521  0.00  0.00    -0.238 NA
ATOM     18  H   TYR A   1      52.823  14.456  -6.571  0.00  0.00    +0.142 HD
ENDBRANCH  16  17
BRANCH  16  19
ATOM     19  CB  TYR A   1      50.496  14.743  -8.603  0.00  0.00    +0.053 C 
BRANCH  19  20
ATOM     20  CG  TYR A   1      49.830  14.511  -7.270  0.00  0.00    -0.020 A 
ATOM     21  CD2 TYR A   1      49.517  15.572  -6.429  0.00  0.00    -0.001 A 
ATOM     22  CE2 TYR A   1      48.904  15.358  -5.204  0.00  0.00    +0.036 A 
ATOM     23  CZ  TYR A   1      48.595  14.062  -4.812  0.00  0.00    +0.134 A 
ATOM     24  CE1 TYR A   1      48.897  12.996  -5.629  0.00  0.00    +0.036 A 
ATOM     25  CD1 TYR A   1      49.510  13.221  -6.850  0.00  0.00    -0.001 A 
BRANCH  23  26
ATOM     26  OH  TYR A   1      47.989  13.826  -3.599  0.00  0.00    -0.506 OA
ATOM     27  HH  TYR A   1      47.121  13.374  -3.748  0.00  0.00    +0.292 HD
ENDBRANCH  23  26
ENDBRANCH  19  20
ENDBRANCH  16  19
ENDBRANCH  12  16
ENDBRANCH  11  14
BRANCH  11  28
ATOM     28  CB  GLN A   2      53.613  19.297  -9.096  0.00  0.00    +0.039 C 
BRANCH  28  29
ATOM     29  CG  GLN A   2      53.649  20.794  -8.832  0.00  0.00    +0.087 C 
BRANCH  29  30
ATOM     30  CD  GLN A   2      55.059  21.311  -8.647  0.00  0.00    +0.219 C 
ATOM     31  NE2 GLN A   2      55.446  21.535  -7.404  0.00  0.00    -0.329 N 
ATOM     32 HE21 GLN A   2      54.796  21.346  -6.615  0.00  0.00    +0.145 HD
ATOM     33 HE22 GLN A   2      56.401  21.901  -7.215  0.00  0.00    +0.145 HD
ATOM     34  OE1 GLN A   2      55.788  21.518  -9.613  0.00  0.00    -0.275 OA
ENDBRANCH  29  30
ENDBRANCH  28  29
ENDBRANCH  11  28
ENDBRANCH   7  11
ENDBRANCH   6   8
BRANCH   6  35
ATOM     35  CB  GLN A   3      48.287  20.026 -11.055  0.00  0.00    +0.039 C 
BRANCH  35  36
ATOM     36  CG  GLN A   3      48.400  18.547 -11.370  0.00  0.00    +0.087 C 
BRANCH  36  37
ATOM     37  CD  GLN A   3      47.055  17.911 -11.626  0.00  0.00    +0.219 C 
ATOM     38  OE1 GLN A   3      46.048  18.302 -11.035  0.00  0.00    -0.275 OA
ATOM     39  NE2 GLN A   3      47.029  16.924 -12.509  0.00  0.00    -0.329 N 
ATOM     40 HE21 GLN A   3      46.132  16.445 -12.728  0.00  0.00    +0.145 HD
ATOM     41 HE22 GLN A   3      47.906  16.628 -12.984  0.00  0.00    +0.145 HD
ENDBRANCH  36  37
ENDBRANCH  35  36
ENDBRANCH   6  35
ENDBRANCH   2   6
ENDBRANCH   1   4
BRANCH   1  42
ATOM     42  C   TYR A   4      48.052  24.973 -12.373  0.00  0.00    +0.241 C 
ATOM     43  N   ALA A   5      47.452  26.060 -11.888  0.00  0.00    -0.297 N 
ATOM     44  H   ALA A   5      47.768  26.442 -10.974  0.00  0.00    +0.150 HD
ATOM     45  O   TYR A   4      47.715  24.417 -13.421  0.00  0.00    -0.273 OA
BRANCH  43  46
ATOM     46  CA  ALA A   5      46.372  26.730 -12.593  0.00  0.00    +0.149 C 
ATOM     47  CB  ALA A   5      45.019  26.357 -11.994  0.00  0.00    +0.031 C 
BRANCH  46  48
ATOM     48  C   ALA A   5      46.561  28.238 -12.571  0.00  0.00    +0.241 C 
ATOM     49  O   ALA A   5      47.101  28.787 -11.614  0.00  0.00    -0.273 OA
ATOM     50  N   TYR A   6      46.125  28.890 -13.649  0.00  0.00    -0.297 N 
ATOM     51  H   TYR A   6      45.833  28.338 -14.481  0.00  0.00    +0.150 HD
BRANCH  50  52
ATOM     52  CA  TYR A   6      46.041  30.342 -13.710  0.00  0.00    +0.153 C 
BRANCH  52  53
ATOM     53  C   TYR A   6      44.581  30.738 -13.900  0.00  0.00    +0.241 C 
ATOM     54  N   ASP A   7      44.096  31.640 -13.046  0.00  0.00    -0.298 N 
ATOM     55  H   ASP A   7      44.737  32.044 -12.333  0.00  0.00    +0.150 HD
ATOM     56  O   TYR A   6      43.912  30.229 -14.795  0.00  0.00    -0.273 OA
BRANCH  54  57
ATOM     57  CA  ASP A   7      42.695  32.089 -13.067  0.00  0.00    +0.148 C 
BRANCH  57  58
ATOM     58  C   ASP A   7      41.704  30.921 -13.150  0.00  0.00    +0.227 C 
ATOM     59  O   ASP A   7      40.747  30.945 -13.928  0.00  0.00    -0.286 OA
ENDBRANCH  57  58
BRANCH  57  60
ATOM     60  CB  ASP A   7      42.468  33.101 -14.202  0.00  0.00    +0.142 C 
BRANCH  60  61
ATOM     61  CG  ASP A   7      43.155  34.441 -13.941  0.00  0.00    +0.367 C 
ATOM     62  OD2 ASP A   7      43.410  34.784 -12.768  0.00  0.00    -0.246 OA
ATOM     63  OD1 ASP A   7      43.439  35.161 -14.912  0.00  0.00    -0.246 OA
ENDBRANCH  60  61
ENDBRANCH  57  60
ENDBRANCH  54  57
ENDBRANCH  52  53
BRANCH  52  64
ATOM     64  CB  TYR A   6      46.889  30.882 -14.857  0.00  0.00    +0.055 C 
BRANCH  64  65
ATOM     65  CG  TYR A   6      46.956  32.396 -14.928  0.00  0.00    -0.020 A 
ATOM     66  CD2 TYR A   6      47.357  33.150 -13.833  0.00  0.00    -0.001 A 
ATOM     67  CE2 TYR A   6      47.436  34.539 -13.902  0.00  0.00    +0.036 A 
ATOM     68  CZ  TYR A   6      47.111  35.183 -15.086  0.00  0.00    +0.134 A 
ATOM     69  CE1 TYR A   6      46.716  34.452 -16.186  0.00  0.00    +0.036 A 
ATOM     70  CD1 TYR A   6      46.643  33.068 -16.105  0.00  0.00    -0.001 A 
BRANCH  68  71
ATOM     71  OH  TYR A   6      47.181  36.558 -15.175  0.00  0.00    -0.506 OA
ATOM     72  HH  TYR A   6      47.478  36.929 -14.307  0.00  0.00    +0.292 HD
ENDBRANCH  68  71
ENDBRANCH  64  65
ENDBRANCH  52  64
ENDBRANCH  50  52
ENDBRANCH  46  48
ENDBRANCH  43  46
ENDBRANCH   1  42
BRANCH   1  73
ATOM     73  CB  TYR A   4      50.464  25.183 -12.184  0.00  0.00    +0.055 C 
BRANCH  73  74
ATOM     74  CG  TYR A   4      51.790  24.950 -11.505  0.00  0.00    -0.020 A 
ATOM     75  CD2 TYR A   4      52.295  25.875 -10.594  0.00  0.00    -0.001 A 
ATOM     76  CE2 TYR A   4      53.524  25.690  -9.987  0.00  0.00    +0.036 A 
ATOM     77  CZ  TYR A   4      54.276  24.578 -10.298  0.00  0.00    +0.134 A 
ATOM     78  CE1 TYR A   4      53.806  23.649 -11.215  0.00  0.00    +0.036 A 
ATOM     79  CD1 TYR A   4      52.574  23.843 -11.815  0.00  0.00    -0.001 A 
BRANCH  77  80
ATOM     80  OH  TYR A   4      55.503  24.414  -9.702  0.00  0.00    -0.506 OA
ATOM     81  HH  TYR A   4      55.916  23.575 -10.026  0.00  0.00    +0.292 HD
ENDBRANCH  77  80
ENDBRANCH  73  74
ENDBRANCH   1  73
TORSDOF 31
REMARK  Name = ../refined-set-2016/4pge/4pge_pocket.pdb
REMARK  355 active torsions:
REMARK  status: ('A' for Active; 'I' for Inactive)
REMARK    1  A    between atoms: _1  and  _3
REMARK    2  A    between atoms: _3  and  _4
REMARK    3  A    between atoms: _3  and  _6
REMARK    4  A    between atoms: _6  and  _7
REMARK    5  A    between atoms: _10  and  _12
REMARK    6  A    between atoms: _12  and  _13
REMARK    7  A    between atoms: _12  and  _15
REMARK    8  A    between atoms: _15  and  _16
REMARK    9  A    between atoms: _16  and  _17
REMARK   10  A    between atoms: _17  and  _18
REMARK   11  A    between atoms: _27  and  _29
REMARK   12  A    between atoms: _29  and  _30
REMARK   13  A    between atoms: _29  and  _32
REMARK   14  A    between atoms: _32  and  _33
REMARK   15  A    between atoms: _38  and  _39
REMARK   16  A    between atoms: _41  and  _43
REMARK   17  A    between atoms: _43  and  _44
REMARK   18  A    between atoms: _43  and  _46
REMARK   19  A    between atoms: _46  and  _47
REMARK   20  A    between atoms: _53  and  _55
REMARK   21  A    between atoms: _55  and  _56
REMARK   22  A    between atoms: _55  and  _58
REMARK   23  A    between atoms: _61  and  _63
REMARK   24  A    between atoms: _63  and  _64
REMARK   25  A    between atoms: _63  and  _66
REMARK   26  A    between atoms: _66  and  _67
REMARK   27  A    between atoms: _70  and  _72
REMARK   28  A    between atoms: _72  and  _73
REMARK   29  A    between atoms: _76  and  _78
REMARK   30  A    between atoms: _78  and  _79
REMARK   31  A    between atoms: _78  and  _81
REMARK   32  A    between atoms: _81  and  _82
REMARK   33  A    between atoms: _87  and  _88
REMARK   34  A    between atoms: _90  and  _92
REMARK   35  A    between atoms: _92  and  _93
REMARK   36  A    between atoms: _92  and  _95
REMARK   37  A    between atoms: _95  and  _96
REMARK   38  A    between atoms: _96  and  _97
REMARK   39  A    between atoms: _99  and  _101
REMARK   40  A    between atoms: _101  and  _102
REMARK   41  A    between atoms: _101  and  _104
REMARK   42  A    between atoms: _104  and  _105
REMARK   43  A    between atoms: _105  and  _106
REMARK   44  A    between atoms: _109  and  _111
REMARK   45  A    between atoms: _111  and  _112
REMARK   46  A    between atoms: _111  and  _114
REMARK   47  A    between atoms: _117  and  _119
REMARK   48  A    between atoms: _119  and  _120
REMARK   49  A    between atoms: _122  and  _124
REMARK   50  A    between atoms: _124  and  _125
REMARK   51  A    between atoms: _124  and  _127
REMARK   52  A    between atoms: _130  and  _132
REMARK   53  A    between atoms: _132  and  _133
REMARK   54  A    between atoms: _132  and  _135
REMARK   55  A    between atoms: _135  and  _136
REMARK   56  A    between atoms: _142  and  _144
REMARK   57  A    between atoms: _144  and  _145
REMARK   58  A    between atoms: _144  and  _147
REMARK   59  A    between atoms: _150  and  _152
REMARK   60  A    between atoms: _152  and  _153
REMARK   61  A    between atoms: _152  and  _155
REMARK   62  A    between atoms: _155  and  _156
REMARK   63  A    between atoms: _161  and  _162
REMARK   64  A    between atoms: _164  and  _166
REMARK   65  A    between atoms: _166  and  _167
REMARK   66  A    between atoms: _166  and  _169
REMARK   67  A    between atoms: _169  and  _170
REMARK   68  A    between atoms: _170  and  _171
REMARK   69  A    between atoms: _173  and  _175
REMARK   70  A    between atoms: _175  and  _176
REMARK   71  A    between atoms: _175  and  _178
REMARK   72  A    between atoms: _178  and  _179
REMARK   73  A    between atoms: _179  and  _180
REMARK   74  A    between atoms: _183  and  _185
REMARK   75  A    between atoms: _185  and  _186
REMARK   76  A    between atoms: _185  and  _188
REMARK   77  A    between atoms: _188  and  _189
REMARK   78  A    between atoms: _189  and  _190
REMARK   79  A    between atoms: _193  and  _195
REMARK   80  A    between atoms: _195  and  _196
REMARK   81  A    between atoms: _195  and  _198
REMARK   82  A    between atoms: _198  and  _199
REMARK   83  A    between atoms: _204  and  _205
REMARK   84  A    between atoms: _207  and  _209
REMARK   85  A    between atoms: _209  and  _210
REMARK   86  A    between atoms: _209  and  _212
REMARK   87  A    between atoms: _212  and  _213
REMARK   88  A    between atoms: _213  and  _214
REMARK   89  A    between atoms: _214  and  _215
REMARK   90  A    between atoms: _224  and  _226
REMARK   91  A    between atoms: _226  and  _227
REMARK   92  A    between atoms: _226  and  _229
REMARK   93  A    between atoms: _229  and  _230
REMARK   94  A    between atoms: _230  and  _231
REMARK   95  A    between atoms: _234  and  _236
REMARK   96  A    between atoms: _236  and  _237
REMARK   97  A    between atoms: _236  and  _239
REMARK   98  A    between atoms: _239  and  _240
REMARK   99  A    between atoms: _243  and  _245
REMARK  100  A    between atoms: _245  and  _246
REMARK  101  A    between atoms: _245  and  _248
REMARK  102  A    between atoms: _248  and  _249
REMARK  103  A    between atoms: _249  and  _250
REMARK  104  A    between atoms: _255  and  _257
REMARK  105  A    between atoms: _257  and  _258
REMARK  106  A    between atoms: _257  and  _260
REMARK  107  A    between atoms: _260  and  _261
REMARK  108  A    between atoms: _261  and  _262
REMARK  109  A    between atoms: _262  and  _263
REMARK  110  A    between atoms: _263  and  _264
REMARK  111  A    between atoms: _268  and  _270
REMARK  112  A    between atoms: _270  and  _271
REMARK  113  A    between atoms: _274  and  _276
REMARK  114  A    between atoms: _276  and  _277
REMARK  115  A    between atoms: _279  and  _281
REMARK  116  A    between atoms: _281  and  _282
REMARK  117  A    between atoms: _281  and  _284
REMARK  118  A    between atoms: _284  and  _285
REMARK  119  A    between atoms: _290  and  _292
REMARK  120  A    between atoms: _292  and  _293
REMARK  121  A    between atoms: _292  and  _295
REMARK  122  A    between atoms: _295  and  _296
REMARK  123  A    between atoms: _296  and  _297
REMARK  124  A    between atoms: _300  and  _302
REMARK  125  A    between atoms: _302  and  _303
REMARK  126  A    between atoms: _302  and  _305
REMARK  127  A    between atoms: _305  and  _306
REMARK  128  A    between atoms: _306  and  _307
REMARK  129  A    between atoms: _312  and  _314
REMARK  130  A    between atoms: _314  and  _315
REMARK  131  A    between atoms: _314  and  _317
REMARK  132  A    between atoms: _317  and  _318
REMARK  133  A    between atoms: _320  and  _322
REMARK  134  A    between atoms: _322  and  _323
REMARK  135  A    between atoms: _322  and  _325
REMARK  136  A    between atoms: _325  and  _326
REMARK  137  A    between atoms: _332  and  _334
REMARK  138  A    between atoms: _334  and  _335
REMARK  139  A    between atoms: _334  and  _337
REMARK  140  A    between atoms: _340  and  _342
REMARK  141  A    between atoms: _342  and  _343
REMARK  142  A    between atoms: _342  and  _345
REMARK  143  A    between atoms: _345  and  _346
REMARK  144  A    between atoms: _349  and  _351
REMARK  145  A    between atoms: _351  and  _352
REMARK  146  A    between atoms: _351  and  _354
REMARK  147  A    between atoms: _354  and  _355
REMARK  148  A    between atoms: _358  and  _360
REMARK  149  A    between atoms: _360  and  _361
REMARK  150  A    between atoms: _360  and  _363
REMARK  151  A    between atoms: _363  and  _364
REMARK  152  A    between atoms: _367  and  _369
REMARK  153  A    between atoms: _369  and  _370
REMARK  154  A    between atoms: _369  and  _372
REMARK  155  A    between atoms: _372  and  _373
REMARK  156  A    between atoms: _376  and  _378
REMARK  157  A    between atoms: _378  and  _379
REMARK  158  A    between atoms: _378  and  _381
REMARK  159  A    between atoms: _381  and  _382
REMARK  160  A    between atoms: _387  and  _388
REMARK  161  A    between atoms: _390  and  _392
REMARK  162  A    between atoms: _392  and  _393
REMARK  163  A    between atoms: _392  and  _395
REMARK  164  A    between atoms: _395  and  _396
REMARK  165  A    between atoms: _401  and  _402
REMARK  166  A    between atoms: _404  and  _406
REMARK  167  A    between atoms: _406  and  _407
REMARK  168  A    between atoms: _406  and  _409
REMARK  169  A    between atoms: _409  and  _410
REMARK  170  A    between atoms: _413  and  _415
REMARK  171  A    between atoms: _415  and  _416
REMARK  172  A    between atoms: _415  and  _418
REMARK  173  A    between atoms: _418  and  _419
REMARK  174  A    between atoms: _422  and  _424
REMARK  175  A    between atoms: _424  and  _425
REMARK  176  A    between atoms: _424  and  _427
REMARK  177  A    between atoms: _427  and  _428
REMARK  178  A    between atoms: _428  and  _429
REMARK  179  A    between atoms: _434  and  _436
REMARK  180  A    between atoms: _436  and  _437
REMARK  181  A    between atoms: _436  and  _439
REMARK  182  A    between atoms: _442  and  _444
REMARK  183  A    between atoms: _444  and  _445
REMARK  184  A    between atoms: _444  and  _447
REMARK  185  A    between atoms: _447  and  _448
REMARK  186  A    between atoms: _451  and  _453
REMARK  187  A    between atoms: _453  and  _454
REMARK  188  A    between atoms: _453  and  _456
REMARK  189  A    between atoms: _456  and  _457
REMARK  190  A    between atoms: _459  and  _461
REMARK  191  A    between atoms: _461  and  _462
REMARK  192  A    between atoms: _464  and  _466
REMARK  193  A    between atoms: _466  and  _467
REMARK  194  A    between atoms: _466  and  _469
REMARK  195  A    between atoms: _469  and  _470
REMARK  196  A    between atoms: _470  and  _802
REMARK  197  A    between atoms: _471  and  _473
REMARK  198  A    between atoms: _473  and  _474
REMARK  199  A    between atoms: _473  and  _476
REMARK  200  A    between atoms: _476  and  _477
REMARK  201  A    between atoms: _482  and  _483
REMARK  202  A    between atoms: _485  and  _487
REMARK  203  A    between atoms: _487  and  _488
REMARK  204  A    between atoms: _487  and  _490
REMARK  205  A    between atoms: _490  and  _491
REMARK  206  A    between atoms: _491  and  _492
REMARK  207  A    between atoms: _497  and  _499
REMARK  208  A    between atoms: _499  and  _500
REMARK  209  A    between atoms: _499  and  _502
REMARK  210  A    between atoms: _502  and  _503
REMARK  211  A    between atoms: _503  and  _504
REMARK  212  A    between atoms: _509  and  _511
REMARK  213  A    between atoms: _511  and  _512
REMARK  214  A    between atoms: _511  and  _514
REMARK  215  A    between atoms: _514  and  _515
REMARK  216  A    between atoms: _520  and  _521
REMARK  217  A    between atoms: _523  and  _525
REMARK  218  A    between atoms: _525  and  _526
REMARK  219  A    between atoms: _529  and  _531
REMARK  220  A    between atoms: _531  and  _532
REMARK  221  A    between atoms: _531  and  _534
REMARK  222  A    between atoms: _534  and  _535
REMARK  223  A    between atoms: _540  and  _541
REMARK  224  A    between atoms: _543  and  _545
REMARK  225  A    between atoms: _545  and  _546
REMARK  226  A    between atoms: _545  and  _548
REMARK  227  A    between atoms: _548  and  _549
REMARK  228  A    between atoms: _552  and  _554
REMARK  229  A    between atoms: _554  and  _555
REMARK  230  A    between atoms: _554  and  _557
REMARK  231  A    between atoms: _559  and  _561
REMARK  232  A    between atoms: _561  and  _562
REMARK  233  A    between atoms: _561  and  _564
REMARK  234  A    between atoms: _564  and  _565
REMARK  235  A    between atoms: _568  and  _570
REMARK  236  A    between atoms: _570  and  _571
REMARK  237  A    between atoms: _570  and  _573
REMARK  238  A    between atoms: _573  and  _574
REMARK  239  A    between atoms: _579  and  _580
REMARK  240  A    between atoms: _582  and  _584
REMARK  241  A    between atoms: _584  and  _585
REMARK  242  A    between atoms: _584  and  _587
REMARK  243  A    between atoms: _587  and  _588
REMARK  244  A    between atoms: _591  and  _593
REMARK  245  A    between atoms: _593  and  _594
REMARK  246  A    between atoms: _593  and  _596
REMARK  247  A    between atoms: _596  and  _597
REMARK  248  A    between atoms: _607  and  _609
REMARK  249  A    between atoms: _609  and  _610
REMARK  250  A    between atoms: _613  and  _615
REMARK  251  A    between atoms: _615  and  _616
REMARK  252  A    between atoms: _619  and  _621
REMARK  253  A    between atoms: _621  and  _622
REMARK  254  A    between atoms: _621  and  _624
REMARK  255  A    between atoms: _624  and  _625
REMARK  256  A    between atoms: _628  and  _630
REMARK  257  A    between atoms: _630  and  _631
REMARK  258  A    between atoms: _630  and  _633
REMARK  259  A    between atoms: _633  and  _634
REMARK  260  A    between atoms: _637  and  _639
REMARK  261  A    between atoms: _639  and  _640
REMARK  262  A    between atoms: _639  and  _642
REMARK  263  A    between atoms: _642  and  _643
REMARK  264  A    between atoms: _646  and  _648
REMARK  265  A    between atoms: _648  and  _649
REMARK  266  A    between atoms: _648  and  _651
REMARK  267  A    between atoms: _651  and  _652
REMARK  268  A    between atoms: _652  and  _653
REMARK  269  A    between atoms: _653  and  _654
REMARK  270  A    between atoms: _654  and  _655
REMARK  271  A    between atoms: _659  and  _661
REMARK  272  A    between atoms: _661  and  _662
REMARK  273  A    between atoms: _661  and  _664
REMARK  274  A    between atoms: _664  and  _665
REMARK  275  A    between atoms: _670  and  _672
REMARK  276  A    between atoms: _672  and  _673
REMARK  277  A    between atoms: _672  and  _675
REMARK  278  A    between atoms: _675  and  _676
REMARK  279  A    between atoms: _676  and  _677
REMARK  280  A    between atoms: _677  and  _678
REMARK  281  A    between atoms: _678  and  _679
REMARK  282  A    between atoms: _683  and  _685
REMARK  283  A    between atoms: _685  and  _686
REMARK  284  A    between atoms: _685  and  _688
REMARK  285  A    between atoms: _688  and  _689
REMARK  286  A    between atoms: _699  and  _701
REMARK  287  A    between atoms: _701  and  _702
REMARK  288  A    between atoms: _701  and  _704
REMARK  289  A    between atoms: _704  and  _705
REMARK  290  A    between atoms: _705  and  _706
REMARK  291  A    between atoms: _711  and  _713
REMARK  292  A    between atoms: _713  and  _714
REMARK  293  A    between atoms: _717  and  _719
REMARK  294  A    between atoms: _719  and  _720
REMARK  295  A    between atoms: _722  and  _724
REMARK  296  A    between atoms: _724  and  _725
REMARK  297  A    between atoms: _724  and  _727
REMARK  298  A    between atoms: _727  and  _728
REMARK  299  A    between atoms: _728  and  _729
REMARK  300  A    between atoms: _732  and  _734
REMARK  301  A    between atoms: _734  and  _735
REMARK  302  A    between atoms: _738  and  _740
REMARK  303  A    between atoms: _740  and  _741
REMARK  304  A    between atoms: _740  and  _743
REMARK  305  A    between atoms: _743  and  _744
REMARK  306  A    between atoms: _744  and  _745
REMARK  307  A    between atoms: _745  and  _746
REMARK  308  A    between atoms: _755  and  _757
REMARK  309  A    between atoms: _757  and  _758
REMARK  310  A    between atoms: _757  and  _760
REMARK  311  A    between atoms: _760  and  _761
REMARK  312  A    between atoms: _764  and  _766
REMARK  313  A    between atoms: _766  and  _767
REMARK  314  A    between atoms: _766  and  _769
REMARK  315  A    between atoms: _769  and  _770
REMARK  316  A    between atoms: _775  and  _776
REMARK  317  A    between atoms: _778  and  _780
REMARK  318  A    between atoms: _780  and  _781
REMARK  319  A    between atoms: _780  and  _783
REMARK  320  A    between atoms: _783  and  _784
REMARK  321  A    between atoms: _787  and  _789
REMARK  322  A    between atoms: _789  and  _790
REMARK  323  A    between atoms: _789  and  _792
REMARK  324  A    between atoms: _792  and  _793
REMARK  325  A    between atoms: _796  and  _798
REMARK  326  A    between atoms: _798  and  _799
REMARK  327  A    between atoms: _798  and  _801
REMARK  328  A    between atoms: _801  and  _802
REMARK  329  A    between atoms: _803  and  _805
REMARK  330  A    between atoms: _805  and  _806
REMARK  331  A    between atoms: _805  and  _808
REMARK  332  A    between atoms: _811  and  _813
REMARK  333  A    between atoms: _813  and  _814
REMARK  334  A    between atoms: _813  and  _816
REMARK  335  A    between atoms: _816  and  _817
REMARK  336  A    between atoms: _817  and  _818
REMARK  337  A    between atoms: _821  and  _823
REMARK  338  A    between atoms: _823  and  _824
REMARK  339  A    between atoms: _823  and  _826
REMARK  340  A    between atoms: _826  and  _827
REMARK  341  A    between atoms: _837  and  _839
REMARK  342  A    between atoms: _839  and  _840
REMARK  343  A    between atoms: _839  and  _842
REMARK  344  A    between atoms: _842  and  _843
REMARK  345  A    between atoms: _846  and  _848
REMARK  346  A    between atoms: _848  and  _849
REMARK  347  A    between atoms: _848  and  _851
REMARK  348  A    between atoms: _851  and  _852
REMARK  349  A    between atoms: _852  and  _853
REMARK  350  A    between atoms: _853  and  _854
REMARK  351  A    between atoms: _863  and  _865
REMARK  352  A    between atoms: _865  and  _866
REMARK  353  A    between atoms: _865  and  _868
REMARK  354  A    between atoms: _868  and  _869
REMARK  355  A    between atoms: _874  and  _875
REMARK                            x       y       z     vdW  Elec       q    Type
REMARK                         _______ _______ _______ _____ _____    ______ ____
ROOT
ATOM      1  CA  TYR A   3      48.194  25.884 -16.825  0.00  0.00    +0.153 C 
ENDROOT
BRANCH   1   3
ATOM      2  C   ASP A   2      45.883  25.126 -16.652  0.00  0.00    +0.241 C 
ATOM      3  N   TYR A   3      47.105  25.197 -16.139  0.00  0.00    -0.297 N 
ATOM      4  H   TYR A   3      47.292  24.749 -15.219  0.00  0.00    +0.150 HD
ATOM      5  O   ASP A   2      45.567  25.688 -17.688  0.00  0.00    -0.273 OA
BRANCH   2   6
ATOM      6  CA  ASP A   2      44.861  24.286 -15.893  0.00  0.00    +0.160 C 
BRANCH   6   9
ATOM      7  C   CYS A   1      43.532  26.296 -15.389  0.00  0.00    +0.239 C 
ATOM      8  O   CYS A   1      44.522  26.961 -15.081  0.00  0.00    -0.274 OA
ATOM      9  N   ASP A   2      43.592  25.012 -15.741  0.00  0.00    -0.297 N 
ATOM     10  H   ASP A   2      42.703  24.502 -15.916  0.00  0.00    +0.150 HD
BRANCH   7  11
ATOM     11  CA  CYS A   1      42.142  26.942 -15.388  0.00  0.00    +0.156 C 
BRANCH  11  12
ATOM     12  CB  CYS A   1      41.947  27.686 -16.715  0.00  0.00    +0.095 C 
ATOM     13  SG  CYS A   1      40.342  28.498 -16.909  0.00  0.00    -0.080 S 
ENDBRANCH  11  12
BRANCH  11  14
ATOM     14  N   CYS A   1      42.012  27.864 -14.256  0.00  0.00    -0.237 NA
ATOM     15  H   CYS A   1      42.706  28.632 -14.160  0.00  0.00    +0.142 HD
ENDBRANCH  11  14
ENDBRANCH   7  11
ENDBRANCH   6   9
BRANCH   6  16
ATOM     16  CB  ASP A   2      44.663  22.989 -16.694  0.00  0.00    +0.143 C 
BRANCH  16  17
ATOM     17  CG  ASP A   2      43.749  21.983 -16.001  0.00  0.00    +0.367 C 
ATOM     18  OD2 ASP A   2      43.491  22.103 -14.785  0.00  0.00    -0.246 OA
ATOM     19  OD1 ASP A   2      43.293  21.056 -16.693  0.00  0.00    -0.246 OA
ENDBRANCH  16  17
ENDBRANCH   6  16
ENDBRANCH   2   6
ENDBRANCH   1   3
BRANCH   1  20
ATOM     20  C   TYR A   3      49.240  24.849 -17.242  0.00  0.00    +0.241 C 
ATOM     21  N   ILE A   4      49.845  24.200 -16.257  0.00  0.00    -0.298 N 
ATOM     22  H   ILE A   4      49.573  24.408 -15.275  0.00  0.00    +0.150 HD
ATOM     23  O   TYR A   3      49.471  24.617 -18.440  0.00  0.00    -0.273 OA
BRANCH  21  24
ATOM     24  CA  ILE A   4      50.882  23.202 -16.507  0.00  0.00    +0.137 C 
BRANCH  24  25
ATOM     25  CB  ILE A   4      52.280  23.872 -16.582  0.00  0.00    +0.026 C 
ATOM     26  CG2 ILE A   4      52.755  24.315 -15.209  0.00  0.00    +0.002 C 
BRANCH  25  27
ATOM     27  CG1 ILE A   4      53.303  22.946 -17.248  0.00  0.00    +0.002 C 
ATOM     28  CD1 ILE A   4      54.570  23.653 -17.687  0.00  0.00    +0.000 C 
ENDBRANCH  25  27
ENDBRANCH  24  25
BRANCH  24  29
ATOM     29  C   ILE A   4      50.837  22.149 -15.411  0.00  0.00    +0.227 C 
ATOM     30  O   ILE A   4      50.428  22.436 -14.279  0.00  0.00    -0.286 OA
ENDBRANCH  24  29
ENDBRANCH  21  24
ENDBRANCH   1  20
BRANCH   1  31
ATOM     31  CB  TYR A   3      48.781  26.961 -15.909  0.00  0.00    +0.055 C 
BRANCH  31  32
ATOM     32  CG  TYR A   3      49.843  27.822 -16.548  0.00  0.00    -0.020 A 
ATOM     33  CD2 TYR A   3      51.196  27.582 -16.307  0.00  0.00    -0.001 A 
ATOM     34  CE2 TYR A   3      52.176  28.374 -16.887  0.00  0.00    +0.036 A 
ATOM     35  CZ  TYR A   3      51.813  29.414 -17.721  0.00  0.00    +0.134 A 
ATOM     36  CE1 TYR A   3      50.473  29.675 -17.978  0.00  0.00    +0.036 A 
ATOM     37  CD1 TYR A   3      49.499  28.881 -17.391  0.00  0.00    -0.001 A 
BRANCH  35  38
ATOM     38  OH  TYR A   3      52.788  30.192 -18.299  0.00  0.00    -0.506 OA
ATOM     39  HH  TYR A   3      53.373  29.623 -18.859  0.00  0.00    +0.292 HD
ENDBRANCH  35  38
ENDBRANCH  31  32
ENDBRANCH   1  31
TORSDOF 16
REMARK  Name = ../refined-set-2016/4pge/4pge_pocket.pdb
REMARK  355 active torsions:
REMARK  status: ('A' for Active; 'I' for Inactive)
REMARK    1  A    between atoms: _1  and  _3
REMARK    2  A    between atoms: _3  and  _4
REMARK    3  A    between atoms: _3  and  _6
REMARK    4  A    between atoms: _6  and  _7
REMARK    5  A    between atoms: _10  and  _12
REMARK    6  A    between atoms: _12  and  _13
REMARK    7  A    between atoms: _12  and  _15
REMARK    8  A    between atoms: _15  and  _16
REMARK    9  A    between atoms: _16  and  _17
REMARK   10  A    between atoms: _17  and  _18
REMARK   11  A    between atoms: _27  and  _29
REMARK   12  A    between atoms: _29  and  _30
REMARK   13  A    between atoms: _29  and  _32
REMARK   14  A    between atoms: _32  and  _33
REMARK   15  A    between atoms: _38  and  _39
REMARK   16  A    between atoms: _41  and  _43
REMARK   17  A    between atoms: _43  and  _44
REMARK   18  A    between atoms: _43  and  _46
REMARK   19  A    between atoms: _46  and  _47
REMARK   20  A    between atoms: _53  and  _55
REMARK   21  A    between atoms: _55  and  _56
REMARK   22  A    between atoms: _55  and  _58
REMARK   23  A    between atoms: _61  and  _63
REMARK   24  A    between atoms: _63  and  _64
REMARK   25  A    between atoms: _63  and  _66
REMARK   26  A    between atoms: _66  and  _67
REMARK   27  A    between atoms: _70  and  _72
REMARK   28  A    between atoms: _72  and  _73
REMARK   29  A    between atoms: _76  and  _78
REMARK   30  A    between atoms: _78  and  _79
REMARK   31  A    between atoms: _78  and  _81
REMARK   32  A    between atoms: _81  and  _82
REMARK   33  A    between atoms: _87  and  _88
REMARK   34  A    between atoms: _90  and  _92
REMARK   35  A    between atoms: _92  and  _93
REMARK   36  A    between atoms: _92  and  _95
REMARK   37  A    between atoms: _95  and  _96
REMARK   38  A    between atoms: _96  and  _97
REMARK   39  A    between atoms: _99  and  _101
REMARK   40  A    between atoms: _101  and  _102
REMARK   41  A    between atoms: _101  and  _104
REMARK   42  A    between atoms: _104  and  _105
REMARK   43  A    between atoms: _105  and  _106
REMARK   44  A    between atoms: _109  and  _111
REMARK   45  A    between atoms: _111  and  _112
REMARK   46  A    between atoms: _111  and  _114
REMARK   47  A    between atoms: _117  and  _119
REMARK   48  A    between atoms: _119  and  _120
REMARK   49  A    between atoms: _122  and  _124
REMARK   50  A    between atoms: _124  and  _125
REMARK   51  A    between atoms: _124  and  _127
REMARK   52  A    between atoms: _130  and  _132
REMARK   53  A    between atoms: _132  and  _133
REMARK   54  A    between atoms: _132  and  _135
REMARK   55  A    between atoms: _135  and  _136
REMARK   56  A    between atoms: _142  and  _144
REMARK   57  A    between atoms: _144  and  _145
REMARK   58  A    between atoms: _144  and  _147
REMARK   59  A    between atoms: _150  and  _152
REMARK   60  A    between atoms: _152  and  _153
REMARK   61  A    between atoms: _152  and  _155
REMARK   62  A    between atoms: _155  and  _156
REMARK   63  A    between atoms: _161  and  _162
REMARK   64  A    between atoms: _164  and  _166
REMARK   65  A    between atoms: _166  and  _167
REMARK   66  A    between atoms: _166  and  _169
REMARK   67  A    between atoms: _169  and  _170
REMARK   68  A    between atoms: _170  and  _171
REMARK   69  A    between atoms: _173  and  _175
REMARK   70  A    between atoms: _175  and  _176
REMARK   71  A    between atoms: _175  and  _178
REMARK   72  A    between atoms: _178  and  _179
REMARK   73  A    between atoms: _179  and  _180
REMARK   74  A    between atoms: _183  and  _185
REMARK   75  A    between atoms: _185  and  _186
REMARK   76  A    between atoms: _185  and  _188
REMARK   77  A    between atoms: _188  and  _189
REMARK   78  A    between atoms: _189  and  _190
REMARK   79  A    between atoms: _193  and  _195
REMARK   80  A    between atoms: _195  and  _196
REMARK   81  A    between atoms: _195  and  _198
REMARK   82  A    between atoms: _198  and  _199
REMARK   83  A    between atoms: _204  and  _205
REMARK   84  A    between atoms: _207  and  _209
REMARK   85  A    between atoms: _209  and  _210
REMARK   86  A    between atoms: _209  and  _212
REMARK   87  A    between atoms: _212  and  _213
REMARK   88  A    between atoms: _213  and  _214
REMARK   89  A    between atoms: _214  and  _215
REMARK   90  A    between atoms: _224  and  _226
REMARK   91  A    between atoms: _226  and  _227
REMARK   92  A    between atoms: _226  and  _229
REMARK   93  A    between atoms: _229  and  _230
REMARK   94  A    between atoms: _230  and  _231
REMARK   95  A    between atoms: _234  and  _236
REMARK   96  A    between atoms: _236  and  _237
REMARK   97  A    between atoms: _236  and  _239
REMARK   98  A    between atoms: _239  and  _240
REMARK   99  A    between atoms: _243  and  _245
REMARK  100  A    between atoms: _245  and  _246
REMARK  101  A    between atoms: _245  and  _248
REMARK  102  A    between atoms: _248  and  _249
REMARK  103  A    between atoms: _249  and  _250
REMARK  104  A    between atoms: _255  and  _257
REMARK  105  A    between atoms: _257  and  _258
REMARK  106  A    between atoms: _257  and  _260
REMARK  107  A    between atoms: _260  and  _261
REMARK  108  A    between atoms: _261  and  _262
REMARK  109  A    between atoms: _262  and  _263
REMARK  110  A    between atoms: _263  and  _264
REMARK  111  A    between atoms: _268  and  _270
REMARK  112  A    between atoms: _270  and  _271
REMARK  113  A    between atoms: _274  and  _276
REMARK  114  A    between atoms: _276  and  _277
REMARK  115  A    between atoms: _279  and  _281
REMARK  116  A    between atoms: _281  and  _282
REMARK  117  A    between atoms: _281  and  _284
REMARK  118  A    between atoms: _284  and  _285
REMARK  119  A    between atoms: _290  and  _292
REMARK  120  A    between atoms: _292  and  _293
REMARK  121  A    between atoms: _292  and  _295
REMARK  122  A    between atoms: _295  and  _296
REMARK  123  A    between atoms: _296  and  _297
REMARK  124  A    between atoms: _300  and  _302
REMARK  125  A    between atoms: _302  and  _303
REMARK  126  A    between atoms: _302  and  _305
REMARK  127  A    between atoms: _305  and  _306
REMARK  128  A    between atoms: _306  and  _307
REMARK  129  A    between atoms: _312  and  _314
REMARK  130  A    between atoms: _314  and  _315
REMARK  131  A    between atoms: _314  and  _317
REMARK  132  A    between atoms: _317  and  _318
REMARK  133  A    between atoms: _320  and  _322
REMARK  134  A    between atoms: _322  and  _323
REMARK  135  A    between atoms: _322  and  _325
REMARK  136  A    between atoms: _325  and  _326
REMARK  137  A    between atoms: _332  and  _334
REMARK  138  A    between atoms: _334  and  _335
REMARK  139  A    between atoms: _334  and  _337
REMARK  140  A    between atoms: _340  and  _342
REMARK  141  A    between atoms: _342  and  _343
REMARK  142  A    between atoms: _342  and  _345
REMARK  143  A    between atoms: _345  and  _346
REMARK  144  A    between atoms: _349  and  _351
REMARK  145  A    between atoms: _351  and  _352
REMARK  146  A    between atoms: _351  and  _354
REMARK  147  A    between atoms: _354  and  _355
REMARK  148  A    between atoms: _358  and  _360
REMARK  149  A    between atoms: _360  and  _361
REMARK  150  A    between atoms: _360  and  _363
REMARK  151  A    between atoms: _363  and  _364
REMARK  152  A    between atoms: _367  and  _369
REMARK  153  A    between atoms: _369  and  _370
REMARK  154  A    between atoms: _369  and  _372
REMARK  155  A    between atoms: _372  and  _373
REMARK  156  A    between atoms: _376  and  _378
REMARK  157  A    between atoms: _378  and  _379
REMARK  158  A    between atoms: _378  and  _381
REMARK  159  A    between atoms: _381  and  _382
REMARK  160  A    between atoms: _387  and  _388
REMARK  161  A    between atoms: _390  and  _392
REMARK  162  A    between atoms: _392  and  _393
REMARK  163  A    between atoms: _392  and  _395
REMARK  164  A    between atoms: _395  and  _396
REMARK  165  A    between atoms: _401  and  _402
REMARK  166  A    between atoms: _404  and  _406
REMARK  167  A    between atoms: _406  and  _407
REMARK  168  A    between atoms: _406  and  _409
REMARK  169  A    between atoms: _409  and  _410
REMARK  170  A    between atoms: _413  and  _415
REMARK  171  A    between atoms: _415  and  _416
REMARK  172  A    between atoms: _415  and  _418
REMARK  173  A    between atoms: _418  and  _419
REMARK  174  A    between atoms: _422  and  _424
REMARK  175  A    between atoms: _424  and  _425
REMARK  176  A    between atoms: _424  and  _427
REMARK  177  A    between atoms: _427  and  _428
REMARK  178  A    between atoms: _428  and  _429
REMARK  179  A    between atoms: _434  and  _436
REMARK  180  A    between atoms: _436  and  _437
REMARK  181  A    between atoms: _436  and  _439
REMARK  182  A    between atoms: _442  and  _444
REMARK  183  A    between atoms: _444  and  _445
REMARK  184  A    between atoms: _444  and  _447
REMARK  185  A    between atoms: _447  and  _448
REMARK  186  A    between atoms: _451  and  _453
REMARK  187  A    between atoms: _453  and  _454
REMARK  188  A    between atoms: _453  and  _456
REMARK  189  A    between atoms: _456  and  _457
REMARK  190  A    between atoms: _459  and  _461
REMARK  191  A    between atoms: _461  and  _462
REMARK  192  A    between atoms: _464  and  _466
REMARK  193  A    between atoms: _466  and  _467
REMARK  194  A    between atoms: _466  and  _469
REMARK  195  A    between atoms: _469  and  _470
REMARK  196  A    between atoms: _470  and  _802
REMARK  197  A    between atoms: _471  and  _473
REMARK  198  A    between atoms: _473  and  _474
REMARK  199  A    between atoms: _473  and  _476
REMARK  200  A    between atoms: _476  and  _477
REMARK  201  A    between atoms: _482  and  _483
REMARK  202  A    between atoms: _485  and  _487
REMARK  203  A    between atoms: _487  and  _488
REMARK  204  A    between atoms: _487  and  _490
REMARK  205  A    between atoms: _490  and  _491
REMARK  206  A    between atoms: _491  and  _492
REMARK  207  A    between atoms: _497  and  _499
REMARK  208  A    between atoms: _499  and  _500
REMARK  209  A    between atoms: _499  and  _502
REMARK  210  A    between atoms: _502  and  _503
REMARK  211  A    between atoms: _503  and  _504
REMARK  212  A    between atoms: _509  and  _511
REMARK  213  A    between atoms: _511  and  _512
REMARK  214  A    between atoms: _511  and  _514
REMARK  215  A    between atoms: _514  and  _515
REMARK  216  A    between atoms: _520  and  _521
REMARK  217  A    between atoms: _523  and  _525
REMARK  218  A    between atoms: _525  and  _526
REMARK  219  A    between atoms: _529  and  _531
REMARK  220  A    between atoms: _531  and  _532
REMARK  221  A    between atoms: _531  and  _534
REMARK  222  A    between atoms: _534  and  _535
REMARK  223  A    between atoms: _540  and  _541
REMARK  224  A    between atoms: _543  and  _545
REMARK  225  A    between atoms: _545  and  _546
REMARK  226  A    between atoms: _545  and  _548
REMARK  227  A    between atoms: _548  and  _549
REMARK  228  A    between atoms: _552  and  _554
REMARK  229  A    between atoms: _554  and  _555
REMARK  230  A    between atoms: _554  and  _557
REMARK  231  A    between atoms: _559  and  _561
REMARK  232  A    between atoms: _561  and  _562
REMARK  233  A    between atoms: _561  and  _564
REMARK  234  A    between atoms: _564  and  _565
REMARK  235  A    between atoms: _568  and  _570
REMARK  236  A    between atoms: _570  and  _571
REMARK  237  A    between atoms: _570  and  _573
REMARK  238  A    between atoms: _573  and  _574
REMARK  239  A    between atoms: _579  and  _580
REMARK  240  A    between atoms: _582  and  _584
REMARK  241  A    between atoms: _584  and  _585
REMARK  242  A    between atoms: _584  and  _587
REMARK  243  A    between atoms: _587  and  _588
REMARK  244  A    between atoms: _591  and  _593
REMARK  245  A    between atoms: _593  and  _594
REMARK  246  A    between atoms: _593  and  _596
REMARK  247  A    between atoms: _596  and  _597
REMARK  248  A    between atoms: _607  and  _609
REMARK  249  A    between atoms: _609  and  _610
REMARK  250  A    between atoms: _613  and  _615
REMARK  251  A    between atoms: _615  and  _616
REMARK  252  A    between atoms: _619  and  _621
REMARK  253  A    between atoms: _621  and  _622
REMARK  254  A    between atoms: _621  and  _624
REMARK  255  A    between atoms: _624  and  _625
REMARK  256  A    between atoms: _628  and  _630
REMARK  257  A    between atoms: _630  and  _631
REMARK  258  A    between atoms: _630  and  _633
REMARK  259  A    between atoms: _633  and  _634
REMARK  260  A    between atoms: _637  and  _639
REMARK  261  A    between atoms: _639  and  _640
REMARK  262  A    between atoms: _639  and  _642
REMARK  263  A    between atoms: _642  and  _643
REMARK  264  A    between atoms: _646  and  _648
REMARK  265  A    between atoms: _648  and  _649
REMARK  266  A    between atoms: _648  and  _651
REMARK  267  A    between atoms: _651  and  _652
REMARK  268  A    between atoms: _652  and  _653
REMARK  269  A    between atoms: _653  and  _654
REMARK  270  A    between atoms: _654  and  _655
REMARK  271  A    between atoms: _659  and  _661
REMARK  272  A    between atoms: _661  and  _662
REMARK  273  A    between atoms: _661  and  _664
REMARK  274  A    between atoms: _664  and  _665
REMARK  275  A    between atoms: _670  and  _672
REMARK  276  A    between atoms: _672  and  _673
REMARK  277  A    between atoms: _672  and  _675
REMARK  278  A    between atoms: _675  and  _676
REMARK  279  A    between atoms: _676  and  _677
REMARK  280  A    between atoms: _677  and  _678
REMARK  281  A    between atoms: _678  and  _679
REMARK  282  A    between atoms: _683  and  _685
REMARK  283  A    between atoms: _685  and  _686
REMARK  284  A    between atoms: _685  and  _688
REMARK  285  A    between atoms: _688  and  _689
REMARK  286  A    between atoms: _699  and  _701
REMARK  287  A    between atoms: _701  and  _702
REMARK  288  A    between atoms: _701  and  _704
REMARK  289  A    between atoms: _704  and  _705
REMARK  290  A    between atoms: _705  and  _706
REMARK  291  A    between atoms: _711  and  _713
REMARK  292  A    between atoms: _713  and  _714
REMARK  293  A    between atoms: _717  and  _719
REMARK  294  A    between atoms: _719  and  _720
REMARK  295  A    between atoms: _722  and  _724
REMARK  296  A    between atoms: _724  and  _725
REMARK  297  A    between atoms: _724  and  _727
REMARK  298  A    between atoms: _727  and  _728
REMARK  299  A    between atoms: _728  and  _729
REMARK  300  A    between atoms: _732  and  _734
REMARK  301  A    between atoms: _734  and  _735
REMARK  302  A    between atoms: _738  and  _740
REMARK  303  A    between atoms: _740  and  _741
REMARK  304  A    between atoms: _740  and  _743
REMARK  305  A    between atoms: _743  and  _744
REMARK  306  A    between atoms: _744  and  _745
REMARK  307  A    between atoms: _745  and  _746
REMARK  308  A    between atoms: _755  and  _757
REMARK  309  A    between atoms: _757  and  _758
REMARK  310  A    between atoms: _757  and  _760
REMARK  311  A    between atoms: _760  and  _761
REMARK  312  A    between atoms: _764  and  _766
REMARK  313  A    between atoms: _766  and  _767
REMARK  314  A    between atoms: _766  and  _769
REMARK  315  A    between atoms: _769  and  _770
REMARK  316  A    between atoms: _775  and  _776
REMARK  317  A    between atoms: _778  and  _780
REMARK  318  A    between atoms: _780  and  _781
REMARK  319  A    between atoms: _780  and  _783
REMARK  320  A    between atoms: _783  and  _784
REMARK  321  A    between atoms: _787  and  _789
REMARK  322  A    between atoms: _789  and  _790
REMARK  323  A    between atoms: _789  and  _792
REMARK  324  A    between atoms: _792  and  _793
REMARK  325  A    between atoms: _796  and  _798
REMARK  326  A    between atoms: _798  and  _799
REMARK  327  A    between atoms: _798  and  _801
REMARK  328  A    between atoms: _801  and  _802
REMARK  329  A    between atoms: _803  and  _805
REMARK  330  A    between atoms: _805  and  _806
REMARK  331  A    between atoms: _805  and  _808
REMARK  332  A    between atoms: _811  and  _813
REMARK  333  A    between atoms: _813  and  _814
REMARK  334  A    between atoms: _813  and  _816
REMARK  335  A    between atoms: _816  and  _817
REMARK  336  A    between atoms: _817  and  _818
REMARK  337  A    between atoms: _821  and  _823
REMARK  338  A    between atoms: _823  and  _824
REMARK  339  A    between atoms: _823  and  _826
REMARK  340  A    between atoms: _826  and  _827
REMARK  341  A    between atoms: _837  and  _839
REMARK  342  A    between atoms: _839  and  _840
REMARK  343  A    between atoms: _839  and  _842
REMARK  344  A    between atoms: _842  and  _843
REMARK  345  A    between atoms: _846  and  _848
REMARK  346  A    between atoms: _848  and  _849
REMARK  347  A    between atoms: _848  and  _851
REMARK  348  A    between atoms: _851  and  _852
REMARK  349  A    between atoms: _852  and  _853
REMARK  350  A    between atoms: _853  and  _854
REMARK  351  A    between atoms: _863  and  _865
REMARK  352  A    between atoms: _865  and  _866
REMARK  353  A    between atoms: _865  and  _868
REMARK  354  A    between atoms: _868  and  _869
REMARK  355  A    between atoms: _874  and  _875
REMARK                            x       y       z     vdW  Elec       q    Type
REMARK                         _______ _______ _______ _____ _____    ______ ____
ROOT
ATOM      1  CG  TRP A   1      57.020  19.879 -17.038  0.00  0.00    -0.002 A 
ATOM      2  CD2 TRP A   1      56.908  20.079 -15.622  0.00  0.00    +0.013 A 
ATOM      3  CE3 TRP A   1      55.831  20.209 -14.742  0.00  0.00    +0.001 A 
ATOM      4  CZ3 TRP A   1      56.092  20.399 -13.395  0.00  0.00    +0.000 A 
ATOM      5  CH2 TRP A   1      57.406  20.470 -12.913  0.00  0.00    +0.001 A 
ATOM      6  CZ2 TRP A   1      58.482  20.350 -13.754  0.00  0.00    +0.017 A 
ATOM      7  CE2 TRP A   1      58.218  20.157 -15.110  0.00  0.00    +0.056 A 
ATOM      8  NE1 TRP A   1      59.077  20.000 -16.164  0.00  0.00    -0.352 N 
ATOM      9  HE1 TRP A   1      60.115  19.999 -16.101  0.00  0.00    +0.166 HD
ATOM     10  CD1 TRP A   1      58.352  19.845 -17.315  0.00  0.00    +0.068 A 
ENDROOT
BRANCH   1  11
ATOM     11  CB  TRP A   1      55.907  19.752 -18.012  0.00  0.00    +0.053 C 
BRANCH  11  12
ATOM     12  CA  TRP A   1      55.361  18.337 -18.151  0.00  0.00    +0.137 C 
BRANCH  12  13
ATOM     13  N   TRP A   1      56.433  17.421 -18.487  0.00  0.00    -0.239 NA
ATOM     14  H   TRP A   1      57.058  17.661 -19.282  0.00  0.00    +0.142 HD
ENDBRANCH  12  13
BRANCH  12  15
ATOM     15  C   TRP A   1      54.328  18.349 -19.250  0.00  0.00    +0.224 C 
ATOM     16  O   TRP A   1      54.640  18.070 -20.402  0.00  0.00    -0.287 OA
ENDBRANCH  12  15
ENDBRANCH  11  12
ENDBRANCH   1  11
TORSDOF 4
REMARK  Name = ../refined-set-2016/4pge/4pge_pocket.pdb
REMARK  355 active torsions:
REMARK  status: ('A' for Active; 'I' for Inactive)
REMARK    1  A    between atoms: _1  and  _3
REMARK    2  A    between atoms: _3  and  _4
REMARK    3  A    between atoms: _3  and  _6
REMARK    4  A    between atoms: _6  and  _7
REMARK    5  A    between atoms: _10  and  _12
REMARK    6  A    between atoms: _12  and  _13
REMARK    7  A    between atoms: _12  and  _15
REMARK    8  A    between atoms: _15  and  _16
REMARK    9  A    between atoms: _16  and  _17
REMARK   10  A    between atoms: _17  and  _18
REMARK   11  A    between atoms: _27  and  _29
REMARK   12  A    between atoms: _29  and  _30
REMARK   13  A    between atoms: _29  and  _32
REMARK   14  A    between atoms: _32  and  _33
REMARK   15  A    between atoms: _38  and  _39
REMARK   16  A    between atoms: _41  and  _43
REMARK   17  A    between atoms: _43  and  _44
REMARK   18  A    between atoms: _43  and  _46
REMARK   19  A    between atoms: _46  and  _47
REMARK   20  A    between atoms: _53  and  _55
REMARK   21  A    between atoms: _55  and  _56
REMARK   22  A    between atoms: _55  and  _58
REMARK   23  A    between atoms: _61  and  _63
REMARK   24  A    between atoms: _63  and  _64
REMARK   25  A    between atoms: _63  and  _66
REMARK   26  A    between atoms: _66  and  _67
REMARK   27  A    between atoms: _70  and  _72
REMARK   28  A    between atoms: _72  and  _73
REMARK   29  A    between atoms: _76  and  _78
REMARK   30  A    between atoms: _78  and  _79
REMARK   31  A    between atoms: _78  and  _81
REMARK   32  A    between atoms: _81  and  _82
REMARK   33  A    between atoms: _87  and  _88
REMARK   34  A    between atoms: _90  and  _92
REMARK   35  A    between atoms: _92  and  _93
REMARK   36  A    between atoms: _92  and  _95
REMARK   37  A    between atoms: _95  and  _96
REMARK   38  A    between atoms: _96  and  _97
REMARK   39  A    between atoms: _99  and  _101
REMARK   40  A    between atoms: _101  and  _102
REMARK   41  A    between atoms: _101  and  _104
REMARK   42  A    between atoms: _104  and  _105
REMARK   43  A    between atoms: _105  and  _106
REMARK   44  A    between atoms: _109  and  _111
REMARK   45  A    between atoms: _111  and  _112
REMARK   46  A    between atoms: _111  and  _114
REMARK   47  A    between atoms: _117  and  _119
REMARK   48  A    between atoms: _119  and  _120
REMARK   49  A    between atoms: _122  and  _124
REMARK   50  A    between atoms: _124  and  _125
REMARK   51  A    between atoms: _124  and  _127
REMARK   52  A    between atoms: _130  and  _132
REMARK   53  A    between atoms: _132  and  _133
REMARK   54  A    between atoms: _132  and  _135
REMARK   55  A    between atoms: _135  and  _136
REMARK   56  A    between atoms: _142  and  _144
REMARK   57  A    between atoms: _144  and  _145
REMARK   58  A    between atoms: _144  and  _147
REMARK   59  A    between atoms: _150  and  _152
REMARK   60  A    between atoms: _152  and  _153
REMARK   61  A    between atoms: _152  and  _155
REMARK   62  A    between atoms: _155  and  _156
REMARK   63  A    between atoms: _161  and  _162
REMARK   64  A    between atoms: _164  and  _166
REMARK   65  A    between atoms: _166  and  _167
REMARK   66  A    between atoms: _166  and  _169
REMARK   67  A    between atoms: _169  and  _170
REMARK   68  A    between atoms: _170  and  _171
REMARK   69  A    between atoms: _173  and  _175
REMARK   70  A    between atoms: _175  and  _176
REMARK   71  A    between atoms: _175  and  _178
REMARK   72  A    between atoms: _178  and  _179
REMARK   73  A    between atoms: _179  and  _180
REMARK   74  A    between atoms: _183  and  _185
REMARK   75  A    between atoms: _185  and  _186
REMARK   76  A    between atoms: _185  and  _188
REMARK   77  A    between atoms: _188  and  _189
REMARK   78  A    between atoms: _189  and  _190
REMARK   79  A    between atoms: _193  and  _195
REMARK   80  A    between atoms: _195  and  _196
REMARK   81  A    between atoms: _195  and  _198
REMARK   82  A    between atoms: _198  and  _199
REMARK   83  A    between atoms: _204  and  _205
REMARK   84  A    between atoms: _207  and  _209
REMARK   85  A    between atoms: _209  and  _210
REMARK   86  A    between atoms: _209  and  _212
REMARK   87  A    between atoms: _212  and  _213
REMARK   88  A    between atoms: _213  and  _214
REMARK   89  A    between atoms: _214  and  _215
REMARK   90  A    between atoms: _224  and  _226
REMARK   91  A    between atoms: _226  and  _227
REMARK   92  A    between atoms: _226  and  _229
REMARK   93  A    between atoms: _229  and  _230
REMARK   94  A    between atoms: _230  and  _231
REMARK   95  A    between atoms: _234  and  _236
REMARK   96  A    between atoms: _236  and  _237
REMARK   97  A    between atoms: _236  and  _239
REMARK   98  A    between atoms: _239  and  _240
REMARK   99  A    between atoms: _243  and  _245
REMARK  100  A    between atoms: _245  and  _246
REMARK  101  A    between atoms: _245  and  _248
REMARK  102  A    between atoms: _248  and  _249
REMARK  103  A    between atoms: _249  and  _250
REMARK  104  A    between atoms: _255  and  _257
REMARK  105  A    between atoms: _257  and  _258
REMARK  106  A    between atoms: _257  and  _260
REMARK  107  A    between atoms: _260  and  _261
REMARK  108  A    between atoms: _261  and  _262
REMARK  109  A    between atoms: _262  and  _263
REMARK  110  A    between atoms: _263  and  _264
REMARK  111  A    between atoms: _268  and  _270
REMARK  112  A    between atoms: _270  and  _271
REMARK  113  A    between atoms: _274  and  _276
REMARK  114  A    between atoms: _276  and  _277
REMARK  115  A    between atoms: _279  and  _281
REMARK  116  A    between atoms: _281  and  _282
REMARK  117  A    between atoms: _281  and  _284
REMARK  118  A    between atoms: _284  and  _285
REMARK  119  A    between atoms: _290  and  _292
REMARK  120  A    between atoms: _292  and  _293
REMARK  121  A    between atoms: _292  and  _295
REMARK  122  A    between atoms: _295  and  _296
REMARK  123  A    between atoms: _296  and  _297
REMARK  124  A    between atoms: _300  and  _302
REMARK  125  A    between atoms: _302  and  _303
REMARK  126  A    between atoms: _302  and  _305
REMARK  127  A    between atoms: _305  and  _306
REMARK  128  A    between atoms: _306  and  _307
REMARK  129  A    between atoms: _312  and  _314
REMARK  130  A    between atoms: _314  and  _315
REMARK  131  A    between atoms: _314  and  _317
REMARK  132  A    between atoms: _317  and  _318
REMARK  133  A    between atoms: _320  and  _322
REMARK  134  A    between atoms: _322  and  _323
REMARK  135  A    between atoms: _322  and  _325
REMARK  136  A    between atoms: _325  and  _326
REMARK  137  A    between atoms: _332  and  _334
REMARK  138  A    between atoms: _334  and  _335
REMARK  139  A    between atoms: _334  and  _337
REMARK  140  A    between atoms: _340  and  _342
REMARK  141  A    between atoms: _342  and  _343
REMARK  142  A    between atoms: _342  and  _345
REMARK  143  A    between atoms: _345  and  _346
REMARK  144  A    between atoms: _349  and  _351
REMARK  145  A    between atoms: _351  and  _352
REMARK  146  A    between atoms: _351  and  _354
REMARK  147  A    between atoms: _354  and  _355
REMARK  148  A    between atoms: _358  and  _360
REMARK  149  A    between atoms: _360  and  _361
REMARK  150  A    between atoms: _360  and  _363
REMARK  151  A    between atoms: _363  and  _364
REMARK  152  A    between atoms: _367  and  _369
REMARK  153  A    between atoms: _369  and  _370
REMARK  154  A    between atoms: _369  and  _372
REMARK  155  A    between atoms: _372  and  _373
REMARK  156  A    between atoms: _376  and  _378
REMARK  157  A    between atoms: _378  and  _379
REMARK  158  A    between atoms: _378  and  _381
REMARK  159  A    between atoms: _381  and  _382
REMARK  160  A    between atoms: _387  and  _388
REMARK  161  A    between atoms: _390  and  _392
REMARK  162  A    between atoms: _392  and  _393
REMARK  163  A    between atoms: _392  and  _395
REMARK  164  A    between atoms: _395  and  _396
REMARK  165  A    between atoms: _401  and  _402
REMARK  166  A    between atoms: _404  and  _406
REMARK  167  A    between atoms: _406  and  _407
REMARK  168  A    between atoms: _406  and  _409
REMARK  169  A    between atoms: _409  and  _410
REMARK  170  A    between atoms: _413  and  _415
REMARK  171  A    between atoms: _415  and  _416
REMARK  172  A    between atoms: _415  and  _418
REMARK  173  A    between atoms: _418  and  _419
REMARK  174  A    between atoms: _422  and  _424
REMARK  175  A    between atoms: _424  and  _425
REMARK  176  A    between atoms: _424  and  _427
REMARK  177  A    between atoms: _427  and  _428
REMARK  178  A    between atoms: _428  and  _429
REMARK  179  A    between atoms: _434  and  _436
REMARK  180  A    between atoms: _436  and  _437
REMARK  181  A    between atoms: _436  and  _439
REMARK  182  A    between atoms: _442  and  _444
REMARK  183  A    between atoms: _444  and  _445
REMARK  184  A    between atoms: _444  and  _447
REMARK  185  A    between atoms: _447  and  _448
REMARK  186  A    between atoms: _451  and  _453
REMARK  187  A    between atoms: _453  and  _454
REMARK  188  A    between atoms: _453  and  _456
REMARK  189  A    between atoms: _456  and  _457
REMARK  190  A    between atoms: _459  and  _461
REMARK  191  A    between atoms: _461  and  _462
REMARK  192  A    between atoms: _464  and  _466
REMARK  193  A    between atoms: _466  and  _467
REMARK  194  A    between atoms: _466  and  _469
REMARK  195  A    between atoms: _469  and  _470
REMARK  196  A    between atoms: _470  and  _802
REMARK  197  A    between atoms: _471  and  _473
REMARK  198  A    between atoms: _473  and  _474
REMARK  199  A    between atoms: _473  and  _476
REMARK  200  A    between atoms: _476  and  _477
REMARK  201  A    between atoms: _482  and  _483
REMARK  202  A    between atoms: _485  and  _487
REMARK  203  A    between atoms: _487  and  _488
REMARK  204  A    between atoms: _487  and  _490
REMARK  205  A    between atoms: _490  and  _491
REMARK  206  A    between atoms: _491  and  _492
REMARK  207  A    between atoms: _497  and  _499
REMARK  208  A    between atoms: _499  and  _500
REMARK  209  A    between atoms: _499  and  _502
REMARK  210  A    between atoms: _502  and  _503
REMARK  211  A    between atoms: _503  and  _504
REMARK  212  A    between atoms: _509  and  _511
REMARK  213  A    between atoms: _511  and  _512
REMARK  214  A    between atoms: _511  and  _514
REMARK  215  A    between atoms: _514  and  _515
REMARK  216  A    between atoms: _520  and  _521
REMARK  217  A    between atoms: _523  and  _525
REMARK  218  A    between atoms: _525  and  _526
REMARK  219  A    between atoms: _529  and  _531
REMARK  220  A    between atoms: _531  and  _532
REMARK  221  A    between atoms: _531  and  _534
REMARK  222  A    between atoms: _534  and  _535
REMARK  223  A    between atoms: _540  and  _541
REMARK  224  A    between atoms: _543  and  _545
REMARK  225  A    between atoms: _545  and  _546
REMARK  226  A    between atoms: _545  and  _548
REMARK  227  A    between atoms: _548  and  _549
REMARK  228  A    between atoms: _552  and  _554
REMARK  229  A    between atoms: _554  and  _555
REMARK  230  A    between atoms: _554  and  _557
REMARK  231  A    between atoms: _559  and  _561
REMARK  232  A    between atoms: _561  and  _562
REMARK  233  A    between atoms: _561  and  _564
REMARK  234  A    between atoms: _564  and  _565
REMARK  235  A    between atoms: _568  and  _570
REMARK  236  A    between atoms: _570  and  _571
REMARK  237  A    between atoms: _570  and  _573
REMARK  238  A    between atoms: _573  and  _574
REMARK  239  A    between atoms: _579  and  _580
REMARK  240  A    between atoms: _582  and  _584
REMARK  241  A    between atoms: _584  and  _585
REMARK  242  A    between atoms: _584  and  _587
REMARK  243  A    between atoms: _587  and  _588
REMARK  244  A    between atoms: _591  and  _593
REMARK  245  A    between atoms: _593  and  _594
REMARK  246  A    between atoms: _593  and  _596
REMARK  247  A    between atoms: _596  and  _597
REMARK  248  A    between atoms: _607  and  _609
REMARK  249  A    between atoms: _609  and  _610
REMARK  250  A    between atoms: _613  and  _615
REMARK  251  A    between atoms: _615  and  _616
REMARK  252  A    between atoms: _619  and  _621
REMARK  253  A    between atoms: _621  and  _622
REMARK  254  A    between atoms: _621  and  _624
REMARK  255  A    between atoms: _624  and  _625
REMARK  256  A    between atoms: _628  and  _630
REMARK  257  A    between atoms: _630  and  _631
REMARK  258  A    between atoms: _630  and  _633
REMARK  259  A    between atoms: _633  and  _634
REMARK  260  A    between atoms: _637  and  _639
REMARK  261  A    between atoms: _639  and  _640
REMARK  262  A    between atoms: _639  and  _642
REMARK  263  A    between atoms: _642  and  _643
REMARK  264  A    between atoms: _646  and  _648
REMARK  265  A    between atoms: _648  and  _649
REMARK  266  A    between atoms: _648  and  _651
REMARK  267  A    between atoms: _651  and  _652
REMARK  268  A    between atoms: _652  and  _653
REMARK  269  A    between atoms: _653  and  _654
REMARK  270  A    between atoms: _654  and  _655
REMARK  271  A    between atoms: _659  and  _661
REMARK  272  A    between atoms: _661  and  _662
REMARK  273  A    between atoms: _661  and  _664
REMARK  274  A    between atoms: _664  and  _665
REMARK  275  A    between atoms: _670  and  _672
REMARK  276  A    between atoms: _672  and  _673
REMARK  277  A    between atoms: _672  and  _675
REMARK  278  A    between atoms: _675  and  _676
REMARK  279  A    between atoms: _676  and  _677
REMARK  280  A    between atoms: _677  and  _678
REMARK  281  A    between atoms: _678  and  _679
REMARK  282  A    between atoms: _683  and  _685
REMARK  283  A    between atoms: _685  and  _686
REMARK  284  A    between atoms: _685  and  _688
REMARK  285  A    between atoms: _688  and  _689
REMARK  286  A    between atoms: _699  and  _701
REMARK  287  A    between atoms: _701  and  _702
REMARK  288  A    between atoms: _701  and  _704
REMARK  289  A    between atoms: _704  and  _705
REMARK  290  A    between atoms: _705  and  _706
REMARK  291  A    between atoms: _711  and  _713
REMARK  292  A    between atoms: _713  and  _714
REMARK  293  A    between atoms: _717  and  _719
REMARK  294  A    between atoms: _719  and  _720
REMARK  295  A    between atoms: _722  and  _724
REMARK  296  A    between atoms: _724  and  _725
REMARK  297  A    between atoms: _724  and  _727
REMARK  298  A    between atoms: _727  and  _728
REMARK  299  A    between atoms: _728  and  _729
REMARK  300  A    between atoms: _732  and  _734
REMARK  301  A    between atoms: _734  and  _735
REMARK  302  A    between atoms: _738  and  _740
REMARK  303  A    between atoms: _740  and  _741
REMARK  304  A    between atoms: _740  and  _743
REMARK  305  A    between atoms: _743  and  _744
REMARK  306  A    between atoms: _744  and  _745
REMARK  307  A    between atoms: _745  and  _746
REMARK  308  A    between atoms: _755  and  _757
REMARK  309  A    between atoms: _757  and  _758
REMARK  310  A    between atoms: _757  and  _760
REMARK  311  A    between atoms: _760  and  _761
REMARK  312  A    between atoms: _764  and  _766
REMARK  313  A    between atoms: _766  and  _767
REMARK  314  A    between atoms: _766  and  _769
REMARK  315  A    between atoms: _769  and  _770
REMARK  316  A    between atoms: _775  and  _776
REMARK  317  A    between atoms: _778  and  _780
REMARK  318  A    between atoms: _780  and  _781
REMARK  319  A    between atoms: _780  and  _783
REMARK  320  A    between atoms: _783  and  _784
REMARK  321  A    between atoms: _787  and  _789
REMARK  322  A    between atoms: _789  and  _790
REMARK  323  A    between atoms: _789  and  _792
REMARK  324  A    between atoms: _792  and  _793
REMARK  325  A    between atoms: _796  and  _798
REMARK  326  A    between atoms: _798  and  _799
REMARK  327  A    between atoms: _798  and  _801
REMARK  328  A    between atoms: _801  and  _802
REMARK  329  A    between atoms: _803  and  _805
REMARK  330  A    between atoms: _805  and  _806
REMARK  331  A    between atoms: _805  and  _808
REMARK  332  A    between atoms: _811  and  _813
REMARK  333  A    between atoms: _813  and  _814
REMARK  334  A    between atoms: _813  and  _816
REMARK  335  A    between atoms: _816  and  _817
REMARK  336  A    between atoms: _817  and  _818
REMARK  337  A    between atoms: _821  and  _823
REMARK  338  A    between atoms: _823  and  _824
REMARK  339  A    between atoms: _823  and  _826
REMARK  340  A    between atoms: _826  and  _827
REMARK  341  A    between atoms: _837  and  _839
REMARK  342  A    between atoms: _839  and  _840
REMARK  343  A    between atoms: _839  and  _842
REMARK  344  A    between atoms: _842  and  _843
REMARK  345  A    between atoms: _846  and  _848
REMARK  346  A    between atoms: _848  and  _849
REMARK  347  A    between atoms: _848  and  _851
REMARK  348  A    between atoms: _851  and  _852
REMARK  349  A    between atoms: _852  and  _853
REMARK  350  A    between atoms: _853  and  _854
REMARK  351  A    between atoms: _863  and  _865
REMARK  352  A    between atoms: _865  and  _866
REMARK  353  A    between atoms: _865  and  _868
REMARK  354  A    between atoms: _868  and  _869
REMARK  355  A    between atoms: _874  and  _875
REMARK                            x       y       z     vdW  Elec       q    Type
REMARK                         _______ _______ _______ _____ _____    ______ ____
ROOT
ATOM      1  CA  LYS A   6      57.448  24.214 -20.116  0.00  0.00    +0.149 C 
ENDROOT
BRANCH   1   2
ATOM      2  C   LYS A   6      58.874  24.189 -20.667  0.00  0.00    +0.241 C 
ATOM      3  O   LYS A   6      59.729  23.461 -20.163  0.00  0.00    -0.273 OA
ATOM      4  N   HIS A   7      59.126  24.982 -21.699  0.00  0.00    -0.297 N 
ATOM      5  H   HIS A   7      58.367  25.577 -22.088  0.00  0.00    +0.150 HD
BRANCH   4   6
ATOM      6  CA  HIS A   7      60.459  25.029 -22.295  0.00  0.00    +0.155 C 
BRANCH   6   7
ATOM      7  C   HIS A   7      61.496  25.548 -21.302  0.00  0.00    +0.241 C 
ATOM      8  N   LYS A   8      61.133  26.541 -20.495  0.00  0.00    -0.297 N 
ATOM      9  H   LYS A   8      60.201  26.986 -20.618  0.00  0.00    +0.150 HD
ATOM     10  O   HIS A   7      62.609  25.043 -21.267  0.00  0.00    -0.273 OA
BRANCH   8  11
ATOM     11  CA  LYS A   8      62.029  27.020 -19.430  0.00  0.00    +0.149 C 
BRANCH  11  12
ATOM     12  C   LYS A   8      62.391  25.888 -18.468  0.00  0.00    +0.241 C 
ATOM     13  N   TRP A   9      61.378  25.169 -17.998  0.00  0.00    -0.298 N 
ATOM     14  H   TRP A   9      60.422  25.318 -18.379  0.00  0.00    +0.150 HD
ATOM     15  O   LYS A   8      63.562  25.667 -18.156  0.00  0.00    -0.273 OA
BRANCH  13  16
ATOM     16  CA  TRP A   9      61.593  24.167 -16.947  0.00  0.00    +0.141 C 
BRANCH  16  17
ATOM     17  C   TRP A   9      62.376  22.962 -17.476  0.00  0.00    +0.227 C 
ATOM     18  O   TRP A   9      63.156  22.347 -16.743  0.00  0.00    -0.286 OA
ENDBRANCH  16  17
BRANCH  16  19
ATOM     19  CB  TRP A   9      60.260  23.734 -16.324  0.00  0.00    +0.056 C 
BRANCH  19  20
ATOM     20  CG  TRP A   9      59.551  24.835 -15.558  0.00  0.00    -0.002 A 
ATOM     21  CD2 TRP A   9      58.289  24.739 -14.886  0.00  0.00    +0.013 A 
ATOM     22  CE2 TRP A   9      58.031  25.996 -14.299  0.00  0.00    +0.056 A 
ATOM     23  CZ2 TRP A   9      56.873  26.257 -13.566  0.00  0.00    +0.017 A 
ATOM     24  CH2 TRP A   9      55.967  25.239 -13.431  0.00  0.00    +0.001 A 
ATOM     25  CZ3 TRP A   9      56.192  23.977 -14.006  0.00  0.00    +0.000 A 
ATOM     26  NE1 TRP A   9      59.090  26.811 -14.594  0.00  0.00    -0.352 N 
ATOM     27  HE1 TRP A   9      59.187  27.804 -14.302  0.00  0.00    +0.166 HD
ATOM     28  CE3 TRP A   9      57.348  23.714 -14.727  0.00  0.00    +0.001 A 
ATOM     29  CD1 TRP A   9      60.001  26.107 -15.336  0.00  0.00    +0.068 A 
ENDBRANCH  19  20
ENDBRANCH  16  19
ENDBRANCH  13  16
ENDBRANCH  11  12
BRANCH  11  30
ATOM     30  CB  LYS A   8      61.382  28.149 -18.627  0.00  0.00    +0.029 C 
BRANCH  30  31
ATOM     31  CG  LYS A   8      61.262  29.488 -19.342  0.00  0.00    +0.000 C 
BRANCH  31  32
ATOM     32  CD  LYS A   8      60.762  30.540 -18.362  0.00  0.00    -0.024 C 
BRANCH  32  33
ATOM     33  CE  LYS A   8      60.559  31.887 -19.027  0.00  0.00    -0.086 C 
BRANCH  33  34
ATOM     34  NZ  LYS A   8      60.277  32.952 -18.028  0.00  0.00    +0.380 N 
ATOM     35  HZ1 LYS A   8      61.077  33.028 -17.368  0.00  0.00    -0.089 HD
ATOM     36  HZ2 LYS A   8      59.413  32.711 -17.501  0.00  0.00    -0.089 HD
ATOM     37  HZ3 LYS A   8      60.144  33.859 -18.519  0.00  0.00    -0.089 HD
ENDBRANCH  33  34
ENDBRANCH  32  33
ENDBRANCH  31  32
ENDBRANCH  30  31
ENDBRANCH  11  30
ENDBRANCH   8  11
ENDBRANCH   6   7
BRANCH   6  38
ATOM     38  CB  HIS A   7      60.469  25.866 -23.574  0.00  0.00    +0.076 C 
BRANCH  38  39
ATOM     39  CG  HIS A   7      59.751  25.221 -24.718  0.00  0.00    +0.082 A 
ATOM     40  CD2 HIS A   7      59.566  23.916 -25.032  0.00  0.00    +0.115 A 
ATOM     41  NE2 HIS A   7      58.830  23.879 -26.189  0.00  0.00    -0.221 NA
ATOM     42  CE1 HIS A   7      58.571  25.115 -26.573  0.00  0.00    +0.199 A 
ATOM     43  ND1 HIS A   7      59.110  25.944 -25.697  0.00  0.00    -0.227 NA
ENDBRANCH  38  39
ENDBRANCH   6  38
ENDBRANCH   4   6
ENDBRANCH   1   2
BRANCH   1  46
ATOM     44  C   THR A   5      57.601  26.458 -19.168  0.00  0.00    +0.243 C 
ATOM     45  O   THR A   5      58.647  26.182 -18.559  0.00  0.00    -0.273 OA
ATOM     46  N   LYS A   6      56.967  25.588 -19.951  0.00  0.00    -0.297 N 
ATOM     47  H   LYS A   6      56.110  25.891 -20.457  0.00  0.00    +0.150 HD
BRANCH  44  48
ATOM     48  CA  THR A   5      56.992  27.859 -19.080  0.00  0.00    +0.176 C 
BRANCH  48  50
ATOM     49  C   ILE A   4      57.481  28.433 -21.401  0.00  0.00    +0.241 C 
ATOM     50  N   THR A   5      56.614  28.346 -20.397  0.00  0.00    -0.295 N 
ATOM     51  H   THR A   5      55.629  28.637 -20.559  0.00  0.00    +0.150 HD
ATOM     52  O   ILE A   4      58.685  28.158 -21.291  0.00  0.00    -0.273 OA
BRANCH  49  53
ATOM     53  CA  ILE A   4      56.890  28.894 -22.733  0.00  0.00    +0.149 C 
BRANCH  53  55
ATOM     54  C   LEU A   3      55.748  26.800 -23.236  0.00  0.00    +0.241 C 
ATOM     55  N   ILE A   4      55.689  28.109 -23.006  0.00  0.00    -0.297 N 
ATOM     56  H   ILE A   4      54.765  28.585 -23.021  0.00  0.00    +0.150 HD
ATOM     57  O   LEU A   3      56.816  26.182 -23.331  0.00  0.00    -0.273 OA
BRANCH  54  58
ATOM     58  CA  LEU A   3      54.407  26.068 -23.392  0.00  0.00    +0.149 C 
BRANCH  58  61
ATOM     59  C   ALA A   2      53.405  26.612 -21.252  0.00  0.00    +0.241 C 
ATOM     60  O   ALA A   2      54.281  25.995 -20.654  0.00  0.00    -0.273 OA
ATOM     61  N   LEU A   3      53.358  26.670 -22.581  0.00  0.00    -0.297 N 
ATOM     62  H   LEU A   3      52.562  27.151 -23.046  0.00  0.00    +0.150 HD
BRANCH  59  63
ATOM     63  CA  ALA A   2      52.298  27.322 -20.479  0.00  0.00    +0.149 C 
ATOM     64  CB  ALA A   2      51.202  26.338 -20.117  0.00  0.00    +0.031 C 
BRANCH  63  67
ATOM     65  C   ALA A   1      52.451  29.534 -21.487  0.00  0.00    +0.238 C 
ATOM     66  O   ALA A   1      53.638  29.657 -21.163  0.00  0.00    -0.274 OA
ATOM     67  N   ALA A   2      51.730  28.457 -21.195  0.00  0.00    -0.297 N 
ATOM     68  H   ALA A   2      50.732  28.423 -21.486  0.00  0.00    +0.150 HD
BRANCH  65  69
ATOM     69  CA  ALA A   1      51.732  30.626 -22.282  0.00  0.00    +0.145 C 
ATOM     70  CB  ALA A   1      50.778  31.395 -21.384  0.00  0.00    +0.028 C 
BRANCH  69  71
ATOM     71  N   ALA A   1      51.010  30.061 -23.423  0.00  0.00    -0.238 NA
ATOM     72  H   ALA A   1      49.977  30.173 -23.471  0.00  0.00    +0.142 HD
ENDBRANCH  69  71
ENDBRANCH  65  69
ENDBRANCH  63  67
ENDBRANCH  59  63
ENDBRANCH  58  61
BRANCH  58  73
ATOM     73  CB  LEU A   3      53.995  26.035 -24.871  0.00  0.00    +0.029 C 
BRANCH  73  74
ATOM     74  CG  LEU A   3      54.966  25.298 -25.790  0.00  0.00    +0.002 C 
ATOM     75  CD2 LEU A   3      55.209  23.882 -25.280  0.00  0.00    +0.000 C 
ATOM     76  CD1 LEU A   3      54.441  25.289 -27.217  0.00  0.00    +0.000 C 
ENDBRANCH  73  74
ENDBRANCH  58  73
ENDBRANCH  54  58
ENDBRANCH  53  55
BRANCH  53  77
ATOM     77  CB  ILE A   4      56.591  30.406 -22.657  0.00  0.00    +0.027 C 
ATOM     78  CG2 ILE A   4      57.858  31.181 -22.300  0.00  0.00    +0.002 C 
BRANCH  77  79
ATOM     79  CG1 ILE A   4      56.022  30.919 -23.983  0.00  0.00    +0.002 C 
ATOM     80  CD1 ILE A   4      55.435  32.315 -23.899  0.00  0.00    +0.000 C 
ENDBRANCH  77  79
ENDBRANCH  53  77
ENDBRANCH  49  53
ENDBRANCH  48  50
BRANCH  48  81
ATOM     81  CB  THR A   5      55.779  27.863 -18.130  0.00  0.00    +0.137 C 
ATOM     82  CG2 THR A   5      56.167  27.375 -16.724  0.00  0.00    +0.034 C 
BRANCH  81  83
ATOM     83  OG1 THR A   5      55.256  29.194 -18.033  0.00  0.00    -0.382 OA
ATOM     84  HG1 THR A   5      55.956  29.798 -17.679  0.00  0.00    +0.210 HD
ENDBRANCH  81  83
ENDBRANCH  48  81
ENDBRANCH  44  48
ENDBRANCH   1  46
BRANCH   1  85
ATOM     85  CB  LYS A   6      56.514  23.426 -21.032  0.00  0.00    +0.029 C 
BRANCH  85  86
ATOM     86  CG  LYS A   6      56.963  22.001 -21.312  0.00  0.00    +0.000 C 
BRANCH  86  87
ATOM     87  CD  LYS A   6      55.924  21.252 -22.126  0.00  0.00    -0.024 C 
BRANCH  87  88
ATOM     88  CE  LYS A   6      56.294  19.785 -22.303  0.00  0.00    -0.086 C 
BRANCH  88  89
ATOM     89  NZ  LYS A   6      57.383  19.580 -23.292  0.00  0.00    +0.380 N 
ATOM     90  HZ1 LYS A   6      58.235  20.087 -22.978  0.00  0.00    -0.089 HD
ATOM     91  HZ2 LYS A   6      57.592  18.564 -23.370  0.00  0.00    -0.089 HD
ATOM     92  HZ3 LYS A   6      57.082  19.946 -24.218  0.00  0.00    -0.089 HD
ENDBRANCH  88  89
ENDBRANCH  87  88
ENDBRANCH  86  87
ENDBRANCH  85  86
ENDBRANCH   1  85
TORSDOF 38
REMARK  Name = ../refined-set-2016/4pge/4pge_pocket.pdb
REMARK  355 active torsions:
REMARK  status: ('A' for Active; 'I' for Inactive)
REMARK    1  A    between atoms: _1  and  _3
REMARK    2  A    between atoms: _3  and  _4
REMARK    3  A    between atoms: _3  and  _6
REMARK    4  A    between atoms: _6  and  _7
REMARK    5  A    between atoms: _10  and  _12
REMARK    6  A    between atoms: _12  and  _13
REMARK    7  A    between atoms: _12  and  _15
REMARK    8  A    between atoms: _15  and  _16
REMARK    9  A    between atoms: _16  and  _17
REMARK   10  A    between atoms: _17  and  _18
REMARK   11  A    between atoms: _27  and  _29
REMARK   12  A    between atoms: _29  and  _30
REMARK   13  A    between atoms: _29  and  _32
REMARK   14  A    between atoms: _32  and  _33
REMARK   15  A    between atoms: _38  and  _39
REMARK   16  A    between atoms: _41  and  _43
REMARK   17  A    between atoms: _43  and  _44
REMARK   18  A    between atoms: _43  and  _46
REMARK   19  A    between atoms: _46  and  _47
REMARK   20  A    between atoms: _53  and  _55
REMARK   21  A    between atoms: _55  and  _56
REMARK   22  A    between atoms: _55  and  _58
REMARK   23  A    between atoms: _61  and  _63
REMARK   24  A    between atoms: _63  and  _64
REMARK   25  A    between atoms: _63  and  _66
REMARK   26  A    between atoms: _66  and  _67
REMARK   27  A    between atoms: _70  and  _72
REMARK   28  A    between atoms: _72  and  _73
REMARK   29  A    between atoms: _76  and  _78
REMARK   30  A    between atoms: _78  and  _79
REMARK   31  A    between atoms: _78  and  _81
REMARK   32  A    between atoms: _81  and  _82
REMARK   33  A    between atoms: _87  and  _88
REMARK   34  A    between atoms: _90  and  _92
REMARK   35  A    between atoms: _92  and  _93
REMARK   36  A    between atoms: _92  and  _95
REMARK   37  A    between atoms: _95  and  _96
REMARK   38  A    between atoms: _96  and  _97
REMARK   39  A    between atoms: _99  and  _101
REMARK   40  A    between atoms: _101  and  _102
REMARK   41  A    between atoms: _101  and  _104
REMARK   42  A    between atoms: _104  and  _105
REMARK   43  A    between atoms: _105  and  _106
REMARK   44  A    between atoms: _109  and  _111
REMARK   45  A    between atoms: _111  and  _112
REMARK   46  A    between atoms: _111  and  _114
REMARK   47  A    between atoms: _117  and  _119
REMARK   48  A    between atoms: _119  and  _120
REMARK   49  A    between atoms: _122  and  _124
REMARK   50  A    between atoms: _124  and  _125
REMARK   51  A    between atoms: _124  and  _127
REMARK   52  A    between atoms: _130  and  _132
REMARK   53  A    between atoms: _132  and  _133
REMARK   54  A    between atoms: _132  and  _135
REMARK   55  A    between atoms: _135  and  _136
REMARK   56  A    between atoms: _142  and  _144
REMARK   57  A    between atoms: _144  and  _145
REMARK   58  A    between atoms: _144  and  _147
REMARK   59  A    between atoms: _150  and  _152
REMARK   60  A    between atoms: _152  and  _153
REMARK   61  A    between atoms: _152  and  _155
REMARK   62  A    between atoms: _155  and  _156
REMARK   63  A    between atoms: _161  and  _162
REMARK   64  A    between atoms: _164  and  _166
REMARK   65  A    between atoms: _166  and  _167
REMARK   66  A    between atoms: _166  and  _169
REMARK   67  A    between atoms: _169  and  _170
REMARK   68  A    between atoms: _170  and  _171
REMARK   69  A    between atoms: _173  and  _175
REMARK   70  A    between atoms: _175  and  _176
REMARK   71  A    between atoms: _175  and  _178
REMARK   72  A    between atoms: _178  and  _179
REMARK   73  A    between atoms: _179  and  _180
REMARK   74  A    between atoms: _183  and  _185
REMARK   75  A    between atoms: _185  and  _186
REMARK   76  A    between atoms: _185  and  _188
REMARK   77  A    between atoms: _188  and  _189
REMARK   78  A    between atoms: _189  and  _190
REMARK   79  A    between atoms: _193  and  _195
REMARK   80  A    between atoms: _195  and  _196
REMARK   81  A    between atoms: _195  and  _198
REMARK   82  A    between atoms: _198  and  _199
REMARK   83  A    between atoms: _204  and  _205
REMARK   84  A    between atoms: _207  and  _209
REMARK   85  A    between atoms: _209  and  _210
REMARK   86  A    between atoms: _209  and  _212
REMARK   87  A    between atoms: _212  and  _213
REMARK   88  A    between atoms: _213  and  _214
REMARK   89  A    between atoms: _214  and  _215
REMARK   90  A    between atoms: _224  and  _226
REMARK   91  A    between atoms: _226  and  _227
REMARK   92  A    between atoms: _226  and  _229
REMARK   93  A    between atoms: _229  and  _230
REMARK   94  A    between atoms: _230  and  _231
REMARK   95  A    between atoms: _234  and  _236
REMARK   96  A    between atoms: _236  and  _237
REMARK   97  A    between atoms: _236  and  _239
REMARK   98  A    between atoms: _239  and  _240
REMARK   99  A    between atoms: _243  and  _245
REMARK  100  A    between atoms: _245  and  _246
REMARK  101  A    between atoms: _245  and  _248
REMARK  102  A    between atoms: _248  and  _249
REMARK  103  A    between atoms: _249  and  _250
REMARK  104  A    between atoms: _255  and  _257
REMARK  105  A    between atoms: _257  and  _258
REMARK  106  A    between atoms: _257  and  _260
REMARK  107  A    between atoms: _260  and  _261
REMARK  108  A    between atoms: _261  and  _262
REMARK  109  A    between atoms: _262  and  _263
REMARK  110  A    between atoms: _263  and  _264
REMARK  111  A    between atoms: _268  and  _270
REMARK  112  A    between atoms: _270  and  _271
REMARK  113  A    between atoms: _274  and  _276
REMARK  114  A    between atoms: _276  and  _277
REMARK  115  A    between atoms: _279  and  _281
REMARK  116  A    between atoms: _281  and  _282
REMARK  117  A    between atoms: _281  and  _284
REMARK  118  A    between atoms: _284  and  _285
REMARK  119  A    between atoms: _290  and  _292
REMARK  120  A    between atoms: _292  and  _293
REMARK  121  A    between atoms: _292  and  _295
REMARK  122  A    between atoms: _295  and  _296
REMARK  123  A    between atoms: _296  and  _297
REMARK  124  A    between atoms: _300  and  _302
REMARK  125  A    between atoms: _302  and  _303
REMARK  126  A    between atoms: _302  and  _305
REMARK  127  A    between atoms: _305  and  _306
REMARK  128  A    between atoms: _306  and  _307
REMARK  129  A    between atoms: _312  and  _314
REMARK  130  A    between atoms: _314  and  _315
REMARK  131  A    between atoms: _314  and  _317
REMARK  132  A    between atoms: _317  and  _318
REMARK  133  A    between atoms: _320  and  _322
REMARK  134  A    between atoms: _322  and  _323
REMARK  135  A    between atoms: _322  and  _325
REMARK  136  A    between atoms: _325  and  _326
REMARK  137  A    between atoms: _332  and  _334
REMARK  138  A    between atoms: _334  and  _335
REMARK  139  A    between atoms: _334  and  _337
REMARK  140  A    between atoms: _340  and  _342
REMARK  141  A    between atoms: _342  and  _343
REMARK  142  A    between atoms: _342  and  _345
REMARK  143  A    between atoms: _345  and  _346
REMARK  144  A    between atoms: _349  and  _351
REMARK  145  A    between atoms: _351  and  _352
REMARK  146  A    between atoms: _351  and  _354
REMARK  147  A    between atoms: _354  and  _355
REMARK  148  A    between atoms: _358  and  _360
REMARK  149  A    between atoms: _360  and  _361
REMARK  150  A    between atoms: _360  and  _363
REMARK  151  A    between atoms: _363  and  _364
REMARK  152  A    between atoms: _367  and  _369
REMARK  153  A    between atoms: _369  and  _370
REMARK  154  A    between atoms: _369  and  _372
REMARK  155  A    between atoms: _372  and  _373
REMARK  156  A    between atoms: _376  and  _378
REMARK  157  A    between atoms: _378  and  _379
REMARK  158  A    between atoms: _378  and  _381
REMARK  159  A    between atoms: _381  and  _382
REMARK  160  A    between atoms: _387  and  _388
REMARK  161  A    between atoms: _390  and  _392
REMARK  162  A    between atoms: _392  and  _393
REMARK  163  A    between atoms: _392  and  _395
REMARK  164  A    between atoms: _395  and  _396
REMARK  165  A    between atoms: _401  and  _402
REMARK  166  A    between atoms: _404  and  _406
REMARK  167  A    between atoms: _406  and  _407
REMARK  168  A    between atoms: _406  and  _409
REMARK  169  A    between atoms: _409  and  _410
REMARK  170  A    between atoms: _413  and  _415
REMARK  171  A    between atoms: _415  and  _416
REMARK  172  A    between atoms: _415  and  _418
REMARK  173  A    between atoms: _418  and  _419
REMARK  174  A    between atoms: _422  and  _424
REMARK  175  A    between atoms: _424  and  _425
REMARK  176  A    between atoms: _424  and  _427
REMARK  177  A    between atoms: _427  and  _428
REMARK  178  A    between atoms: _428  and  _429
REMARK  179  A    between atoms: _434  and  _436
REMARK  180  A    between atoms: _436  and  _437
REMARK  181  A    between atoms: _436  and  _439
REMARK  182  A    between atoms: _442  and  _444
REMARK  183  A    between atoms: _444  and  _445
REMARK  184  A    between atoms: _444  and  _447
REMARK  185  A    between atoms: _447  and  _448
REMARK  186  A    between atoms: _451  and  _453
REMARK  187  A    between atoms: _453  and  _454
REMARK  188  A    between atoms: _453  and  _456
REMARK  189  A    between atoms: _456  and  _457
REMARK  190  A    between atoms: _459  and  _461
REMARK  191  A    between atoms: _461  and  _462
REMARK  192  A    between atoms: _464  and  _466
REMARK  193  A    between atoms: _466  and  _467
REMARK  194  A    between atoms: _466  and  _469
REMARK  195  A    between atoms: _469  and  _470
REMARK  196  A    between atoms: _470  and  _802
REMARK  197  A    between atoms: _471  and  _473
REMARK  198  A    between atoms: _473  and  _474
REMARK  199  A    between atoms: _473  and  _476
REMARK  200  A    between atoms: _476  and  _477
REMARK  201  A    between atoms: _482  and  _483
REMARK  202  A    between atoms: _485  and  _487
REMARK  203  A    between atoms: _487  and  _488
REMARK  204  A    between atoms: _487  and  _490
REMARK  205  A    between atoms: _490  and  _491
REMARK  206  A    between atoms: _491  and  _492
REMARK  207  A    between atoms: _497  and  _499
REMARK  208  A    between atoms: _499  and  _500
REMARK  209  A    between atoms: _499  and  _502
REMARK  210  A    between atoms: _502  and  _503
REMARK  211  A    between atoms: _503  and  _504
REMARK  212  A    between atoms: _509  and  _511
REMARK  213  A    between atoms: _511  and  _512
REMARK  214  A    between atoms: _511  and  _514
REMARK  215  A    between atoms: _514  and  _515
REMARK  216  A    between atoms: _520  and  _521
REMARK  217  A    between atoms: _523  and  _525
REMARK  218  A    between atoms: _525  and  _526
REMARK  219  A    between atoms: _529  and  _531
REMARK  220  A    between atoms: _531  and  _532
REMARK  221  A    between atoms: _531  and  _534
REMARK  222  A    between atoms: _534  and  _535
REMARK  223  A    between atoms: _540  and  _541
REMARK  224  A    between atoms: _543  and  _545
REMARK  225  A    between atoms: _545  and  _546
REMARK  226  A    between atoms: _545  and  _548
REMARK  227  A    between atoms: _548  and  _549
REMARK  228  A    between atoms: _552  and  _554
REMARK  229  A    between atoms: _554  and  _555
REMARK  230  A    between atoms: _554  and  _557
REMARK  231  A    between atoms: _559  and  _561
REMARK  232  A    between atoms: _561  and  _562
REMARK  233  A    between atoms: _561  and  _564
REMARK  234  A    between atoms: _564  and  _565
REMARK  235  A    between atoms: _568  and  _570
REMARK  236  A    between atoms: _570  and  _571
REMARK  237  A    between atoms: _570  and  _573
REMARK  238  A    between atoms: _573  and  _574
REMARK  239  A    between atoms: _579  and  _580
REMARK  240  A    between atoms: _582  and  _584
REMARK  241  A    between atoms: _584  and  _585
REMARK  242  A    between atoms: _584  and  _587
REMARK  243  A    between atoms: _587  and  _588
REMARK  244  A    between atoms: _591  and  _593
REMARK  245  A    between atoms: _593  and  _594
REMARK  246  A    between atoms: _593  and  _596
REMARK  247  A    between atoms: _596  and  _597
REMARK  248  A    between atoms: _607  and  _609
REMARK  249  A    between atoms: _609  and  _610
REMARK  250  A    between atoms: _613  and  _615
REMARK  251  A    between atoms: _615  and  _616
REMARK  252  A    between atoms: _619  and  _621
REMARK  253  A    between atoms: _621  and  _622
REMARK  254  A    between atoms: _621  and  _624
REMARK  255  A    between atoms: _624  and  _625
REMARK  256  A    between atoms: _628  and  _630
REMARK  257  A    between atoms: _630  and  _631
REMARK  258  A    between atoms: _630  and  _633
REMARK  259  A    between atoms: _633  and  _634
REMARK  260  A    between atoms: _637  and  _639
REMARK  261  A    between atoms: _639  and  _640
REMARK  262  A    between atoms: _639  and  _642
REMARK  263  A    between atoms: _642  and  _643
REMARK  264  A    between atoms: _646  and  _648
REMARK  265  A    between atoms: _648  and  _649
REMARK  266  A    between atoms: _648  and  _651
REMARK  267  A    between atoms: _651  and  _652
REMARK  268  A    between atoms: _652  and  _653
REMARK  269  A    between atoms: _653  and  _654
REMARK  270  A    between atoms: _654  and  _655
REMARK  271  A    between atoms: _659  and  _661
REMARK  272  A    between atoms: _661  and  _662
REMARK  273  A    between atoms: _661  and  _664
REMARK  274  A    between atoms: _664  and  _665
REMARK  275  A    between atoms: _670  and  _672
REMARK  276  A    between atoms: _672  and  _673
REMARK  277  A    between atoms: _672  and  _675
REMARK  278  A    between atoms: _675  and  _676
REMARK  279  A    between atoms: _676  and  _677
REMARK  280  A    between atoms: _677  and  _678
REMARK  281  A    between atoms: _678  and  _679
REMARK  282  A    between atoms: _683  and  _685
REMARK  283  A    between atoms: _685  and  _686
REMARK  284  A    between atoms: _685  and  _688
REMARK  285  A    between atoms: _688  and  _689
REMARK  286  A    between atoms: _699  and  _701
REMARK  287  A    between atoms: _701  and  _702
REMARK  288  A    between atoms: _701  and  _704
REMARK  289  A    between atoms: _704  and  _705
REMARK  290  A    between atoms: _705  and  _706
REMARK  291  A    between atoms: _711  and  _713
REMARK  292  A    between atoms: _713  and  _714
REMARK  293  A    between atoms: _717  and  _719
REMARK  294  A    between atoms: _719  and  _720
REMARK  295  A    between atoms: _722  and  _724
REMARK  296  A    between atoms: _724  and  _725
REMARK  297  A    between atoms: _724  and  _727
REMARK  298  A    between atoms: _727  and  _728
REMARK  299  A    between atoms: _728  and  _729
REMARK  300  A    between atoms: _732  and  _734
REMARK  301  A    between atoms: _734  and  _735
REMARK  302  A    between atoms: _738  and  _740
REMARK  303  A    between atoms: _740  and  _741
REMARK  304  A    between atoms: _740  and  _743
REMARK  305  A    between atoms: _743  and  _744
REMARK  306  A    between atoms: _744  and  _745
REMARK  307  A    between atoms: _745  and  _746
REMARK  308  A    between atoms: _755  and  _757
REMARK  309  A    between atoms: _757  and  _758
REMARK  310  A    between atoms: _757  and  _760
REMARK  311  A    between atoms: _760  and  _761
REMARK  312  A    between atoms: _764  and  _766
REMARK  313  A    between atoms: _766  and  _767
REMARK  314  A    between atoms: _766  and  _769
REMARK  315  A    between atoms: _769  and  _770
REMARK  316  A    between atoms: _775  and  _776
REMARK  317  A    between atoms: _778  and  _780
REMARK  318  A    between atoms: _780  and  _781
REMARK  319  A    between atoms: _780  and  _783
REMARK  320  A    between atoms: _783  and  _784
REMARK  321  A    between atoms: _787  and  _789
REMARK  322  A    between atoms: _789  and  _790
REMARK  323  A    between atoms: _789  and  _792
REMARK  324  A    between atoms: _792  and  _793
REMARK  325  A    between atoms: _796  and  _798
REMARK  326  A    between atoms: _798  and  _799
REMARK  327  A    between atoms: _798  and  _801
REMARK  328  A    between atoms: _801  and  _802
REMARK  329  A    between atoms: _803  and  _805
REMARK  330  A    between atoms: _805  and  _806
REMARK  331  A    between atoms: _805  and  _808
REMARK  332  A    between atoms: _811  and  _813
REMARK  333  A    between atoms: _813  and  _814
REMARK  334  A    between atoms: _813  and  _816
REMARK  335  A    between atoms: _816  and  _817
REMARK  336  A    between atoms: _817  and  _818
REMARK  337  A    between atoms: _821  and  _823
REMARK  338  A    between atoms: _823  and  _824
REMARK  339  A    between atoms: _823  and  _826
REMARK  340  A    between atoms: _826  and  _827
REMARK  341  A    between atoms: _837  and  _839
REMARK  342  A    between atoms: _839  and  _840
REMARK  343  A    between atoms: _839  and  _842
REMARK  344  A    between atoms: _842  and  _843
REMARK  345  A    between atoms: _846  and  _848
REMARK  346  A    between atoms: _848  and  _849
REMARK  347  A    between atoms: _848  and  _851
REMARK  348  A    between atoms: _851  and  _852
REMARK  349  A    between atoms: _852  and  _853
REMARK  350  A    between atoms: _853  and  _854
REMARK  351  A    between atoms: _863  and  _865
REMARK  352  A    between atoms: _865  and  _866
REMARK  353  A    between atoms: _865  and  _868
REMARK  354  A    between atoms: _868  and  _869
REMARK  355  A    between atoms: _874  and  _875
REMARK                            x       y       z     vdW  Elec       q    Type
REMARK                         _______ _______ _______ _____ _____    ______ ____
ROOT
ATOM      1  C   ALA A   2      66.636  22.679 -15.516  0.00  0.00    +0.241 C 
ATOM      2  O   ALA A   2      67.183  22.589 -14.418  0.00  0.00    -0.273 OA
ATOM      3  N   GLY A   3      66.021  21.650 -16.095  0.00  0.00    -0.295 N 
ATOM      4  H   GLY A   3      65.597  21.781 -17.036  0.00  0.00    +0.150 HD
ENDROOT
BRANCH   1   5
ATOM      5  CA  ALA A   2      66.630  24.017 -16.260  0.00  0.00    +0.149 C 
ATOM      6  CB  ALA A   2      65.862  25.060 -15.462  0.00  0.00    +0.031 C 
BRANCH   5   8
ATOM      7  C   GLN A   1      66.875  23.655 -18.655  0.00  0.00    +0.238 C 
ATOM      8  N   ALA A   2      66.089  23.924 -17.617  0.00  0.00    -0.297 N 
ATOM      9  H   ALA A   2      65.071  24.071 -17.772  0.00  0.00    +0.150 HD
ATOM     10  O   GLN A   1      68.096  23.549 -18.547  0.00  0.00    -0.274 OA
BRANCH   7  11
ATOM     11  CA  GLN A   1      66.204  23.451 -20.014  0.00  0.00    +0.145 C 
BRANCH  11  12
ATOM     12  N   GLN A   1      64.780  23.085 -19.904  0.00  0.00    -0.238 NA
ATOM     13  H   GLN A   1      64.049  23.775 -20.171  0.00  0.00    +0.142 HD
ENDBRANCH  11  12
BRANCH  11  14
ATOM     14  CB  GLN A   1      66.434  24.660 -20.948  0.00  0.00    +0.036 C 
BRANCH  14  15
ATOM     15  CG  GLN A   1      65.671  25.941 -20.622  0.00  0.00    +0.087 C 
BRANCH  15  16
ATOM     16  CD  GLN A   1      66.399  26.868 -19.657  0.00  0.00    +0.219 C 
ATOM     17  NE2 GLN A   1      65.735  27.209 -18.549  0.00  0.00    -0.329 N 
ATOM     18 HE21 GLN A   1      66.171  27.855 -17.860  0.00  0.00    +0.145 HD
ATOM     19 HE22 GLN A   1      64.783  26.829 -18.376  0.00  0.00    +0.145 HD
ATOM     20  OE1 GLN A   1      67.536  27.291 -19.914  0.00  0.00    -0.275 OA
ENDBRANCH  15  16
ENDBRANCH  14  15
ENDBRANCH  11  14
ENDBRANCH   7  11
ENDBRANCH   5   8
ENDBRANCH   1   5
BRANCH   3  21
ATOM     21  CA  GLY A   3      65.923  20.338 -15.447  0.00  0.00    +0.176 C 
BRANCH  21  22
ATOM     22  C   GLY A   3      65.064  20.321 -14.189  0.00  0.00    +0.243 C 
ATOM     23  O   GLY A   3      65.332  19.556 -13.254  0.00  0.00    -0.273 OA
ATOM     24  N   GLU A   4      64.011  21.134 -14.170  0.00  0.00    -0.297 N 
ATOM     25  H   GLU A   4      63.783  21.691 -15.018  0.00  0.00    +0.150 HD
BRANCH  24  26
ATOM     26  CA  GLU A   4      63.165  21.262 -12.979  0.00  0.00    +0.149 C 
BRANCH  26  27
ATOM     27  C   GLU A   4      62.488  19.956 -12.561  0.00  0.00    +0.241 C 
ATOM     28  O   GLU A   4      62.354  19.689 -11.368  0.00  0.00    -0.273 OA
ATOM     29  N   ALA A   5      62.073  19.144 -13.529  0.00  0.00    -0.298 N 
ATOM     30  H   ALA A   5      62.234  19.413 -14.521  0.00  0.00    +0.150 HD
BRANCH  29  31
ATOM     31  CA  ALA A   5      61.394  17.879 -13.232  0.00  0.00    +0.137 C 
ATOM     32  CB  ALA A   5      60.992  17.171 -14.518  0.00  0.00    +0.030 C 
BRANCH  31  33
ATOM     33  C   ALA A   5      62.227  16.942 -12.354  0.00  0.00    +0.227 C 
ATOM     34  O   ALA A   5      61.691  16.307 -11.437  0.00  0.00    -0.286 OA
ENDBRANCH  31  33
ENDBRANCH  29  31
ENDBRANCH  26  27
BRANCH  26  35
ATOM     35  CB  GLU A   4      62.092  22.346 -13.167  0.00  0.00    +0.041 C 
BRANCH  35  36
ATOM     36  CG  GLU A   4      62.622  23.745 -13.458  0.00  0.00    +0.116 C 
BRANCH  36  37
ATOM     37  CD  GLU A   4      63.463  24.337 -12.341  0.00  0.00    +0.365 C 
ATOM     38  OE2 GLU A   4      63.561  23.726 -11.258  0.00  0.00    -0.246 OA
ATOM     39  OE1 GLU A   4      64.020  25.439 -12.544  0.00  0.00    -0.246 OA
ENDBRANCH  36  37
ENDBRANCH  35  36
ENDBRANCH  26  35
ENDBRANCH  24  26
ENDBRANCH  21  22
ENDBRANCH   3  21
TORSDOF 16
REMARK  Name = ../refined-set-2016/4pge/4pge_pocket.pdb
REMARK  355 active torsions:
REMARK  status: ('A' for Active; 'I' for Inactive)
REMARK    1  A    between atoms: _1  and  _3
REMARK    2  A    between atoms: _3  and  _4
REMARK    3  A    between atoms: _3  and  _6
REMARK    4  A    between atoms: _6  and  _7
REMARK    5  A    between atoms: _10  and  _12
REMARK    6  A    between atoms: _12  and  _13
REMARK    7  A    between atoms: _12  and  _15
REMARK    8  A    between atoms: _15  and  _16
REMARK    9  A    between atoms: _16  and  _17
REMARK   10  A    between atoms: _17  and  _18
REMARK   11  A    between atoms: _27  and  _29
REMARK   12  A    between atoms: _29  and  _30
REMARK   13  A    between atoms: _29  and  _32
REMARK   14  A    between atoms: _32  and  _33
REMARK   15  A    between atoms: _38  and  _39
REMARK   16  A    between atoms: _41  and  _43
REMARK   17  A    between atoms: _43  and  _44
REMARK   18  A    between atoms: _43  and  _46
REMARK   19  A    between atoms: _46  and  _47
REMARK   20  A    between atoms: _53  and  _55
REMARK   21  A    between atoms: _55  and  _56
REMARK   22  A    between atoms: _55  and  _58
REMARK   23  A    between atoms: _61  and  _63
REMARK   24  A    between atoms: _63  and  _64
REMARK   25  A    between atoms: _63  and  _66
REMARK   26  A    between atoms: _66  and  _67
REMARK   27  A    between atoms: _70  and  _72
REMARK   28  A    between atoms: _72  and  _73
REMARK   29  A    between atoms: _76  and  _78
REMARK   30  A    between atoms: _78  and  _79
REMARK   31  A    between atoms: _78  and  _81
REMARK   32  A    between atoms: _81  and  _82
REMARK   33  A    between atoms: _87  and  _88
REMARK   34  A    between atoms: _90  and  _92
REMARK   35  A    between atoms: _92  and  _93
REMARK   36  A    between atoms: _92  and  _95
REMARK   37  A    between atoms: _95  and  _96
REMARK   38  A    between atoms: _96  and  _97
REMARK   39  A    between atoms: _99  and  _101
REMARK   40  A    between atoms: _101  and  _102
REMARK   41  A    between atoms: _101  and  _104
REMARK   42  A    between atoms: _104  and  _105
REMARK   43  A    between atoms: _105  and  _106
REMARK   44  A    between atoms: _109  and  _111
REMARK   45  A    between atoms: _111  and  _112
REMARK   46  A    between atoms: _111  and  _114
REMARK   47  A    between atoms: _117  and  _119
REMARK   48  A    between atoms: _119  and  _120
REMARK   49  A    between atoms: _122  and  _124
REMARK   50  A    between atoms: _124  and  _125
REMARK   51  A    between atoms: _124  and  _127
REMARK   52  A    between atoms: _130  and  _132
REMARK   53  A    between atoms: _132  and  _133
REMARK   54  A    between atoms: _132  and  _135
REMARK   55  A    between atoms: _135  and  _136
REMARK   56  A    between atoms: _142  and  _144
REMARK   57  A    between atoms: _144  and  _145
REMARK   58  A    between atoms: _144  and  _147
REMARK   59  A    between atoms: _150  and  _152
REMARK   60  A    between atoms: _152  and  _153
REMARK   61  A    between atoms: _152  and  _155
REMARK   62  A    between atoms: _155  and  _156
REMARK   63  A    between atoms: _161  and  _162
REMARK   64  A    between atoms: _164  and  _166
REMARK   65  A    between atoms: _166  and  _167
REMARK   66  A    between atoms: _166  and  _169
REMARK   67  A    between atoms: _169  and  _170
REMARK   68  A    between atoms: _170  and  _171
REMARK   69  A    between atoms: _173  and  _175
REMARK   70  A    between atoms: _175  and  _176
REMARK   71  A    between atoms: _175  and  _178
REMARK   72  A    between atoms: _178  and  _179
REMARK   73  A    between atoms: _179  and  _180
REMARK   74  A    between atoms: _183  and  _185
REMARK   75  A    between atoms: _185  and  _186
REMARK   76  A    between atoms: _185  and  _188
REMARK   77  A    between atoms: _188  and  _189
REMARK   78  A    between atoms: _189  and  _190
REMARK   79  A    between atoms: _193  and  _195
REMARK   80  A    between atoms: _195  and  _196
REMARK   81  A    between atoms: _195  and  _198
REMARK   82  A    between atoms: _198  and  _199
REMARK   83  A    between atoms: _204  and  _205
REMARK   84  A    between atoms: _207  and  _209
REMARK   85  A    between atoms: _209  and  _210
REMARK   86  A    between atoms: _209  and  _212
REMARK   87  A    between atoms: _212  and  _213
REMARK   88  A    between atoms: _213  and  _214
REMARK   89  A    between atoms: _214  and  _215
REMARK   90  A    between atoms: _224  and  _226
REMARK   91  A    between atoms: _226  and  _227
REMARK   92  A    between atoms: _226  and  _229
REMARK   93  A    between atoms: _229  and  _230
REMARK   94  A    between atoms: _230  and  _231
REMARK   95  A    between atoms: _234  and  _236
REMARK   96  A    between atoms: _236  and  _237
REMARK   97  A    between atoms: _236  and  _239
REMARK   98  A    between atoms: _239  and  _240
REMARK   99  A    between atoms: _243  and  _245
REMARK  100  A    between atoms: _245  and  _246
REMARK  101  A    between atoms: _245  and  _248
REMARK  102  A    between atoms: _248  and  _249
REMARK  103  A    between atoms: _249  and  _250
REMARK  104  A    between atoms: _255  and  _257
REMARK  105  A    between atoms: _257  and  _258
REMARK  106  A    between atoms: _257  and  _260
REMARK  107  A    between atoms: _260  and  _261
REMARK  108  A    between atoms: _261  and  _262
REMARK  109  A    between atoms: _262  and  _263
REMARK  110  A    between atoms: _263  and  _264
REMARK  111  A    between atoms: _268  and  _270
REMARK  112  A    between atoms: _270  and  _271
REMARK  113  A    between atoms: _274  and  _276
REMARK  114  A    between atoms: _276  and  _277
REMARK  115  A    between atoms: _279  and  _281
REMARK  116  A    between atoms: _281  and  _282
REMARK  117  A    between atoms: _281  and  _284
REMARK  118  A    between atoms: _284  and  _285
REMARK  119  A    between atoms: _290  and  _292
REMARK  120  A    between atoms: _292  and  _293
REMARK  121  A    between atoms: _292  and  _295
REMARK  122  A    between atoms: _295  and  _296
REMARK  123  A    between atoms: _296  and  _297
REMARK  124  A    between atoms: _300  and  _302
REMARK  125  A    between atoms: _302  and  _303
REMARK  126  A    between atoms: _302  and  _305
REMARK  127  A    between atoms: _305  and  _306
REMARK  128  A    between atoms: _306  and  _307
REMARK  129  A    between atoms: _312  and  _314
REMARK  130  A    between atoms: _314  and  _315
REMARK  131  A    between atoms: _314  and  _317
REMARK  132  A    between atoms: _317  and  _318
REMARK  133  A    between atoms: _320  and  _322
REMARK  134  A    between atoms: _322  and  _323
REMARK  135  A    between atoms: _322  and  _325
REMARK  136  A    between atoms: _325  and  _326
REMARK  137  A    between atoms: _332  and  _334
REMARK  138  A    between atoms: _334  and  _335
REMARK  139  A    between atoms: _334  and  _337
REMARK  140  A    between atoms: _340  and  _342
REMARK  141  A    between atoms: _342  and  _343
REMARK  142  A    between atoms: _342  and  _345
REMARK  143  A    between atoms: _345  and  _346
REMARK  144  A    between atoms: _349  and  _351
REMARK  145  A    between atoms: _351  and  _352
REMARK  146  A    between atoms: _351  and  _354
REMARK  147  A    between atoms: _354  and  _355
REMARK  148  A    between atoms: _358  and  _360
REMARK  149  A    between atoms: _360  and  _361
REMARK  150  A    between atoms: _360  and  _363
REMARK  151  A    between atoms: _363  and  _364
REMARK  152  A    between atoms: _367  and  _369
REMARK  153  A    between atoms: _369  and  _370
REMARK  154  A    between atoms: _369  and  _372
REMARK  155  A    between atoms: _372  and  _373
REMARK  156  A    between atoms: _376  and  _378
REMARK  157  A    between atoms: _378  and  _379
REMARK  158  A    between atoms: _378  and  _381
REMARK  159  A    between atoms: _381  and  _382
REMARK  160  A    between atoms: _387  and  _388
REMARK  161  A    between atoms: _390  and  _392
REMARK  162  A    between atoms: _392  and  _393
REMARK  163  A    between atoms: _392  and  _395
REMARK  164  A    between atoms: _395  and  _396
REMARK  165  A    between atoms: _401  and  _402
REMARK  166  A    between atoms: _404  and  _406
REMARK  167  A    between atoms: _406  and  _407
REMARK  168  A    between atoms: _406  and  _409
REMARK  169  A    between atoms: _409  and  _410
REMARK  170  A    between atoms: _413  and  _415
REMARK  171  A    between atoms: _415  and  _416
REMARK  172  A    between atoms: _415  and  _418
REMARK  173  A    between atoms: _418  and  _419
REMARK  174  A    between atoms: _422  and  _424
REMARK  175  A    between atoms: _424  and  _425
REMARK  176  A    between atoms: _424  and  _427
REMARK  177  A    between atoms: _427  and  _428
REMARK  178  A    between atoms: _428  and  _429
REMARK  179  A    between atoms: _434  and  _436
REMARK  180  A    between atoms: _436  and  _437
REMARK  181  A    between atoms: _436  and  _439
REMARK  182  A    between atoms: _442  and  _444
REMARK  183  A    between atoms: _444  and  _445
REMARK  184  A    between atoms: _444  and  _447
REMARK  185  A    between atoms: _447  and  _448
REMARK  186  A    between atoms: _451  and  _453
REMARK  187  A    between atoms: _453  and  _454
REMARK  188  A    between atoms: _453  and  _456
REMARK  189  A    between atoms: _456  and  _457
REMARK  190  A    between atoms: _459  and  _461
REMARK  191  A    between atoms: _461  and  _462
REMARK  192  A    between atoms: _464  and  _466
REMARK  193  A    between atoms: _466  and  _467
REMARK  194  A    between atoms: _466  and  _469
REMARK  195  A    between atoms: _469  and  _470
REMARK  196  A    between atoms: _470  and  _802
REMARK  197  A    between atoms: _471  and  _473
REMARK  198  A    between atoms: _473  and  _474
REMARK  199  A    between atoms: _473  and  _476
REMARK  200  A    between atoms: _476  and  _477
REMARK  201  A    between atoms: _482  and  _483
REMARK  202  A    between atoms: _485  and  _487
REMARK  203  A    between atoms: _487  and  _488
REMARK  204  A    between atoms: _487  and  _490
REMARK  205  A    between atoms: _490  and  _491
REMARK  206  A    between atoms: _491  and  _492
REMARK  207  A    between atoms: _497  and  _499
REMARK  208  A    between atoms: _499  and  _500
REMARK  209  A    between atoms: _499  and  _502
REMARK  210  A    between atoms: _502  and  _503
REMARK  211  A    between atoms: _503  and  _504
REMARK  212  A    between atoms: _509  and  _511
REMARK  213  A    between atoms: _511  and  _512
REMARK  214  A    between atoms: _511  and  _514
REMARK  215  A    between atoms: _514  and  _515
REMARK  216  A    between atoms: _520  and  _521
REMARK  217  A    between atoms: _523  and  _525
REMARK  218  A    between atoms: _525  and  _526
REMARK  219  A    between atoms: _529  and  _531
REMARK  220  A    between atoms: _531  and  _532
REMARK  221  A    between atoms: _531  and  _534
REMARK  222  A    between atoms: _534  and  _535
REMARK  223  A    between atoms: _540  and  _541
REMARK  224  A    between atoms: _543  and  _545
REMARK  225  A    between atoms: _545  and  _546
REMARK  226  A    between atoms: _545  and  _548
REMARK  227  A    between atoms: _548  and  _549
REMARK  228  A    between atoms: _552  and  _554
REMARK  229  A    between atoms: _554  and  _555
REMARK  230  A    between atoms: _554  and  _557
REMARK  231  A    between atoms: _559  and  _561
REMARK  232  A    between atoms: _561  and  _562
REMARK  233  A    between atoms: _561  and  _564
REMARK  234  A    between atoms: _564  and  _565
REMARK  235  A    between atoms: _568  and  _570
REMARK  236  A    between atoms: _570  and  _571
REMARK  237  A    between atoms: _570  and  _573
REMARK  238  A    between atoms: _573  and  _574
REMARK  239  A    between atoms: _579  and  _580
REMARK  240  A    between atoms: _582  and  _584
REMARK  241  A    between atoms: _584  and  _585
REMARK  242  A    between atoms: _584  and  _587
REMARK  243  A    between atoms: _587  and  _588
REMARK  244  A    between atoms: _591  and  _593
REMARK  245  A    between atoms: _593  and  _594
REMARK  246  A    between atoms: _593  and  _596
REMARK  247  A    between atoms: _596  and  _597
REMARK  248  A    between atoms: _607  and  _609
REMARK  249  A    between atoms: _609  and  _610
REMARK  250  A    between atoms: _613  and  _615
REMARK  251  A    between atoms: _615  and  _616
REMARK  252  A    between atoms: _619  and  _621
REMARK  253  A    between atoms: _621  and  _622
REMARK  254  A    between atoms: _621  and  _624
REMARK  255  A    between atoms: _624  and  _625
REMARK  256  A    between atoms: _628  and  _630
REMARK  257  A    between atoms: _630  and  _631
REMARK  258  A    between atoms: _630  and  _633
REMARK  259  A    between atoms: _633  and  _634
REMARK  260  A    between atoms: _637  and  _639
REMARK  261  A    between atoms: _639  and  _640
REMARK  262  A    between atoms: _639  and  _642
REMARK  263  A    between atoms: _642  and  _643
REMARK  264  A    between atoms: _646  and  _648
REMARK  265  A    between atoms: _648  and  _649
REMARK  266  A    between atoms: _648  and  _651
REMARK  267  A    between atoms: _651  and  _652
REMARK  268  A    between atoms: _652  and  _653
REMARK  269  A    between atoms: _653  and  _654
REMARK  270  A    between atoms: _654  and  _655
REMARK  271  A    between atoms: _659  and  _661
REMARK  272  A    between atoms: _661  and  _662
REMARK  273  A    between atoms: _661  and  _664
REMARK  274  A    between atoms: _664  and  _665
REMARK  275  A    between atoms: _670  and  _672
REMARK  276  A    between atoms: _672  and  _673
REMARK  277  A    between atoms: _672  and  _675
REMARK  278  A    between atoms: _675  and  _676
REMARK  279  A    between atoms: _676  and  _677
REMARK  280  A    between atoms: _677  and  _678
REMARK  281  A    between atoms: _678  and  _679
REMARK  282  A    between atoms: _683  and  _685
REMARK  283  A    between atoms: _685  and  _686
REMARK  284  A    between atoms: _685  and  _688
REMARK  285  A    between atoms: _688  and  _689
REMARK  286  A    between atoms: _699  and  _701
REMARK  287  A    between atoms: _701  and  _702
REMARK  288  A    between atoms: _701  and  _704
REMARK  289  A    between atoms: _704  and  _705
REMARK  290  A    between atoms: _705  and  _706
REMARK  291  A    between atoms: _711  and  _713
REMARK  292  A    between atoms: _713  and  _714
REMARK  293  A    between atoms: _717  and  _719
REMARK  294  A    between atoms: _719  and  _720
REMARK  295  A    between atoms: _722  and  _724
REMARK  296  A    between atoms: _724  and  _725
REMARK  297  A    between atoms: _724  and  _727
REMARK  298  A    between atoms: _727  and  _728
REMARK  299  A    between atoms: _728  and  _729
REMARK  300  A    between atoms: _732  and  _734
REMARK  301  A    between atoms: _734  and  _735
REMARK  302  A    between atoms: _738  and  _740
REMARK  303  A    between atoms: _740  and  _741
REMARK  304  A    between atoms: _740  and  _743
REMARK  305  A    between atoms: _743  and  _744
REMARK  306  A    between atoms: _744  and  _745
REMARK  307  A    between atoms: _745  and  _746
REMARK  308  A    between atoms: _755  and  _757
REMARK  309  A    between atoms: _757  and  _758
REMARK  310  A    between atoms: _757  and  _760
REMARK  311  A    between atoms: _760  and  _761
REMARK  312  A    between atoms: _764  and  _766
REMARK  313  A    between atoms: _766  and  _767
REMARK  314  A    between atoms: _766  and  _769
REMARK  315  A    between atoms: _769  and  _770
REMARK  316  A    between atoms: _775  and  _776
REMARK  317  A    between atoms: _778  and  _780
REMARK  318  A    between atoms: _780  and  _781
REMARK  319  A    between atoms: _780  and  _783
REMARK  320  A    between atoms: _783  and  _784
REMARK  321  A    between atoms: _787  and  _789
REMARK  322  A    between atoms: _789  and  _790
REMARK  323  A    between atoms: _789  and  _792
REMARK  324  A    between atoms: _792  and  _793
REMARK  325  A    between atoms: _796  and  _798
REMARK  326  A    between atoms: _798  and  _799
REMARK  327  A    between atoms: _798  and  _801
REMARK  328  A    between atoms: _801  and  _802
REMARK  329  A    between atoms: _803  and  _805
REMARK  330  A    between atoms: _805  and  _806
REMARK  331  A    between atoms: _805  and  _808
REMARK  332  A    between atoms: _811  and  _813
REMARK  333  A    between atoms: _813  and  _814
REMARK  334  A    between atoms: _813  and  _816
REMARK  335  A    between atoms: _816  and  _817
REMARK  336  A    between atoms: _817  and  _818
REMARK  337  A    between atoms: _821  and  _823
REMARK  338  A    between atoms: _823  and  _824
REMARK  339  A    between atoms: _823  and  _826
REMARK  340  A    between atoms: _826  and  _827
REMARK  341  A    between atoms: _837  and  _839
REMARK  342  A    between atoms: _839  and  _840
REMARK  343  A    between atoms: _839  and  _842
REMARK  344  A    between atoms: _842  and  _843
REMARK  345  A    between atoms: _846  and  _848
REMARK  346  A    between atoms: _848  and  _849
REMARK  347  A    between atoms: _848  and  _851
REMARK  348  A    between atoms: _851  and  _852
REMARK  349  A    between atoms: _852  and  _853
REMARK  350  A    between atoms: _853  and  _854
REMARK  351  A    between atoms: _863  and  _865
REMARK  352  A    between atoms: _865  and  _866
REMARK  353  A    between atoms: _865  and  _868
REMARK  354  A    between atoms: _868  and  _869
REMARK  355  A    between atoms: _874  and  _875
REMARK                            x       y       z     vdW  Elec       q    Type
REMARK                         _______ _______ _______ _____ _____    ______ ____
ROOT
ATOM      1  CA  ARG A   1      64.599  18.240  -8.797  0.00  0.00    +0.145 C 
ENDROOT
BRANCH   1   2
ATOM      2  C   ARG A   1      63.273  17.896  -8.111  0.00  0.00    +0.238 C 
ATOM      3  O   ARG A   1      63.259  17.450  -6.964  0.00  0.00    -0.274 OA
ATOM      4  N   LEU A   2      62.165  18.086  -8.823  0.00  0.00    -0.298 N 
ATOM      5  H   LEU A   2      62.243  18.425  -9.803  0.00  0.00    +0.150 HD
BRANCH   4   6
ATOM      6  CA  LEU A   2      60.839  17.828  -8.258  0.00  0.00    +0.137 C 
BRANCH   6   7
ATOM      7  C   LEU A   2      60.634  16.344  -7.969  0.00  0.00    +0.227 C 
ATOM      8  O   LEU A   2      60.104  15.969  -6.924  0.00  0.00    -0.286 OA
ENDBRANCH   6   7
BRANCH   6   9
ATOM      9  CB  LEU A   2      59.738  18.344  -9.194  0.00  0.00    +0.028 C 
BRANCH   9  10
ATOM     10  CG  LEU A   2      58.287  18.142  -8.729  0.00  0.00    +0.002 C 
ATOM     11  CD2 LEU A   2      58.067  18.639  -7.302  0.00  0.00    +0.000 C 
ATOM     12  CD1 LEU A   2      57.337  18.835  -9.686  0.00  0.00    +0.000 C 
ENDBRANCH   9  10
ENDBRANCH   6   9
ENDBRANCH   4   6
ENDBRANCH   1   2
BRANCH   1  13
ATOM     13  N   ARG A   1      64.620  17.728 -10.163  0.00  0.00    -0.238 NA
ATOM     14  H   ARG A   1      64.718  18.393 -10.956  0.00  0.00    +0.142 HD
ENDBRANCH   1  13
BRANCH   1  15
ATOM     15  CB  ARG A   1      64.821  19.752  -8.780  0.00  0.00    +0.030 C 
BRANCH  15  16
ATOM     16  CG  ARG A   1      66.204  20.189  -9.244  0.00  0.00    +0.045 C 
BRANCH  16  17
ATOM     17  CD  ARG A   1      66.199  21.662  -9.630  0.00  0.00    +0.174 C 
BRANCH  17  18
ATOM     18  NE  ARG A   1      67.479  22.107 -10.177  0.00  0.00    -0.265 N 
ATOM     19  HE  ARG A   1      68.274  21.437 -10.152  0.00  0.00    +0.259 HD
ATOM     20  CZ  ARG A   1      67.700  23.311 -10.706  0.00  0.00    +0.342 C 
ATOM     21  NH2 ARG A   1      66.724  24.215 -10.775  0.00  0.00    -0.292 N 
ATOM     22 HH21 ARG A   1      65.776  23.985 -10.414  0.00  0.00    +0.255 HD
ATOM     23 HH22 ARG A   1      66.910  25.150 -11.190  0.00  0.00    +0.255 HD
ATOM     24  NH1 ARG A   1      68.908  23.617 -11.172  0.00  0.00    -0.292 N 
ATOM     25 HH11 ARG A   1      69.677  22.918 -11.123  0.00  0.00    +0.255 HD
ATOM     26 HH12 ARG A   1      69.084  24.555 -11.585  0.00  0.00    +0.255 HD
ENDBRANCH  17  18
ENDBRANCH  16  17
ENDBRANCH  15  16
ENDBRANCH   1  15
TORSDOF 10
REMARK  Name = ../refined-set-2016/4pge/4pge_pocket.pdb
REMARK  355 active torsions:
REMARK  status: ('A' for Active; 'I' for Inactive)
REMARK    1  A    between atoms: _1  and  _3
REMARK    2  A    between atoms: _3  and  _4
REMARK    3  A    between atoms: _3  and  _6
REMARK    4  A    between atoms: _6  and  _7
REMARK    5  A    between atoms: _10  and  _12
REMARK    6  A    between atoms: _12  and  _13
REMARK    7  A    between atoms: _12  and  _15
REMARK    8  A    between atoms: _15  and  _16
REMARK    9  A    between atoms: _16  and  _17
REMARK   10  A    between atoms: _17  and  _18
REMARK   11  A    between atoms: _27  and  _29
REMARK   12  A    between atoms: _29  and  _30
REMARK   13  A    between atoms: _29  and  _32
REMARK   14  A    between atoms: _32  and  _33
REMARK   15  A    between atoms: _38  and  _39
REMARK   16  A    between atoms: _41  and  _43
REMARK   17  A    between atoms: _43  and  _44
REMARK   18  A    between atoms: _43  and  _46
REMARK   19  A    between atoms: _46  and  _47
REMARK   20  A    between atoms: _53  and  _55
REMARK   21  A    between atoms: _55  and  _56
REMARK   22  A    between atoms: _55  and  _58
REMARK   23  A    between atoms: _61  and  _63
REMARK   24  A    between atoms: _63  and  _64
REMARK   25  A    between atoms: _63  and  _66
REMARK   26  A    between atoms: _66  and  _67
REMARK   27  A    between atoms: _70  and  _72
REMARK   28  A    between atoms: _72  and  _73
REMARK   29  A    between atoms: _76  and  _78
REMARK   30  A    between atoms: _78  and  _79
REMARK   31  A    between atoms: _78  and  _81
REMARK   32  A    between atoms: _81  and  _82
REMARK   33  A    between atoms: _87  and  _88
REMARK   34  A    between atoms: _90  and  _92
REMARK   35  A    between atoms: _92  and  _93
REMARK   36  A    between atoms: _92  and  _95
REMARK   37  A    between atoms: _95  and  _96
REMARK   38  A    between atoms: _96  and  _97
REMARK   39  A    between atoms: _99  and  _101
REMARK   40  A    between atoms: _101  and  _102
REMARK   41  A    between atoms: _101  and  _104
REMARK   42  A    between atoms: _104  and  _105
REMARK   43  A    between atoms: _105  and  _106
REMARK   44  A    between atoms: _109  and  _111
REMARK   45  A    between atoms: _111  and  _112
REMARK   46  A    between atoms: _111  and  _114
REMARK   47  A    between atoms: _117  and  _119
REMARK   48  A    between atoms: _119  and  _120
REMARK   49  A    between atoms: _122  and  _124
REMARK   50  A    between atoms: _124  and  _125
REMARK   51  A    between atoms: _124  and  _127
REMARK   52  A    between atoms: _130  and  _132
REMARK   53  A    between atoms: _132  and  _133
REMARK   54  A    between atoms: _132  and  _135
REMARK   55  A    between atoms: _135  and  _136
REMARK   56  A    between atoms: _142  and  _144
REMARK   57  A    between atoms: _144  and  _145
REMARK   58  A    between atoms: _144  and  _147
REMARK   59  A    between atoms: _150  and  _152
REMARK   60  A    between atoms: _152  and  _153
REMARK   61  A    between atoms: _152  and  _155
REMARK   62  A    between atoms: _155  and  _156
REMARK   63  A    between atoms: _161  and  _162
REMARK   64  A    between atoms: _164  and  _166
REMARK   65  A    between atoms: _166  and  _167
REMARK   66  A    between atoms: _166  and  _169
REMARK   67  A    between atoms: _169  and  _170
REMARK   68  A    between atoms: _170  and  _171
REMARK   69  A    between atoms: _173  and  _175
REMARK   70  A    between atoms: _175  and  _176
REMARK   71  A    between atoms: _175  and  _178
REMARK   72  A    between atoms: _178  and  _179
REMARK   73  A    between atoms: _179  and  _180
REMARK   74  A    between atoms: _183  and  _185
REMARK   75  A    between atoms: _185  and  _186
REMARK   76  A    between atoms: _185  and  _188
REMARK   77  A    between atoms: _188  and  _189
REMARK   78  A    between atoms: _189  and  _190
REMARK   79  A    between atoms: _193  and  _195
REMARK   80  A    between atoms: _195  and  _196
REMARK   81  A    between atoms: _195  and  _198
REMARK   82  A    between atoms: _198  and  _199
REMARK   83  A    between atoms: _204  and  _205
REMARK   84  A    between atoms: _207  and  _209
REMARK   85  A    between atoms: _209  and  _210
REMARK   86  A    between atoms: _209  and  _212
REMARK   87  A    between atoms: _212  and  _213
REMARK   88  A    between atoms: _213  and  _214
REMARK   89  A    between atoms: _214  and  _215
REMARK   90  A    between atoms: _224  and  _226
REMARK   91  A    between atoms: _226  and  _227
REMARK   92  A    between atoms: _226  and  _229
REMARK   93  A    between atoms: _229  and  _230
REMARK   94  A    between atoms: _230  and  _231
REMARK   95  A    between atoms: _234  and  _236
REMARK   96  A    between atoms: _236  and  _237
REMARK   97  A    between atoms: _236  and  _239
REMARK   98  A    between atoms: _239  and  _240
REMARK   99  A    between atoms: _243  and  _245
REMARK  100  A    between atoms: _245  and  _246
REMARK  101  A    between atoms: _245  and  _248
REMARK  102  A    between atoms: _248  and  _249
REMARK  103  A    between atoms: _249  and  _250
REMARK  104  A    between atoms: _255  and  _257
REMARK  105  A    between atoms: _257  and  _258
REMARK  106  A    between atoms: _257  and  _260
REMARK  107  A    between atoms: _260  and  _261
REMARK  108  A    between atoms: _261  and  _262
REMARK  109  A    between atoms: _262  and  _263
REMARK  110  A    between atoms: _263  and  _264
REMARK  111  A    between atoms: _268  and  _270
REMARK  112  A    between atoms: _270  and  _271
REMARK  113  A    between atoms: _274  and  _276
REMARK  114  A    between atoms: _276  and  _277
REMARK  115  A    between atoms: _279  and  _281
REMARK  116  A    between atoms: _281  and  _282
REMARK  117  A    between atoms: _281  and  _284
REMARK  118  A    between atoms: _284  and  _285
REMARK  119  A    between atoms: _290  and  _292
REMARK  120  A    between atoms: _292  and  _293
REMARK  121  A    between atoms: _292  and  _295
REMARK  122  A    between atoms: _295  and  _296
REMARK  123  A    between atoms: _296  and  _297
REMARK  124  A    between atoms: _300  and  _302
REMARK  125  A    between atoms: _302  and  _303
REMARK  126  A    between atoms: _302  and  _305
REMARK  127  A    between atoms: _305  and  _306
REMARK  128  A    between atoms: _306  and  _307
REMARK  129  A    between atoms: _312  and  _314
REMARK  130  A    between atoms: _314  and  _315
REMARK  131  A    between atoms: _314  and  _317
REMARK  132  A    between atoms: _317  and  _318
REMARK  133  A    between atoms: _320  and  _322
REMARK  134  A    between atoms: _322  and  _323
REMARK  135  A    between atoms: _322  and  _325
REMARK  136  A    between atoms: _325  and  _326
REMARK  137  A    between atoms: _332  and  _334
REMARK  138  A    between atoms: _334  and  _335
REMARK  139  A    between atoms: _334  and  _337
REMARK  140  A    between atoms: _340  and  _342
REMARK  141  A    between atoms: _342  and  _343
REMARK  142  A    between atoms: _342  and  _345
REMARK  143  A    between atoms: _345  and  _346
REMARK  144  A    between atoms: _349  and  _351
REMARK  145  A    between atoms: _351  and  _352
REMARK  146  A    between atoms: _351  and  _354
REMARK  147  A    between atoms: _354  and  _355
REMARK  148  A    between atoms: _358  and  _360
REMARK  149  A    between atoms: _360  and  _361
REMARK  150  A    between atoms: _360  and  _363
REMARK  151  A    between atoms: _363  and  _364
REMARK  152  A    between atoms: _367  and  _369
REMARK  153  A    between atoms: _369  and  _370
REMARK  154  A    between atoms: _369  and  _372
REMARK  155  A    between atoms: _372  and  _373
REMARK  156  A    between atoms: _376  and  _378
REMARK  157  A    between atoms: _378  and  _379
REMARK  158  A    between atoms: _378  and  _381
REMARK  159  A    between atoms: _381  and  _382
REMARK  160  A    between atoms: _387  and  _388
REMARK  161  A    between atoms: _390  and  _392
REMARK  162  A    between atoms: _392  and  _393
REMARK  163  A    between atoms: _392  and  _395
REMARK  164  A    between atoms: _395  and  _396
REMARK  165  A    between atoms: _401  and  _402
REMARK  166  A    between atoms: _404  and  _406
REMARK  167  A    between atoms: _406  and  _407
REMARK  168  A    between atoms: _406  and  _409
REMARK  169  A    between atoms: _409  and  _410
REMARK  170  A    between atoms: _413  and  _415
REMARK  171  A    between atoms: _415  and  _416
REMARK  172  A    between atoms: _415  and  _418
REMARK  173  A    between atoms: _418  and  _419
REMARK  174  A    between atoms: _422  and  _424
REMARK  175  A    between atoms: _424  and  _425
REMARK  176  A    between atoms: _424  and  _427
REMARK  177  A    between atoms: _427  and  _428
REMARK  178  A    between atoms: _428  and  _429
REMARK  179  A    between atoms: _434  and  _436
REMARK  180  A    between atoms: _436  and  _437
REMARK  181  A    between atoms: _436  and  _439
REMARK  182  A    between atoms: _442  and  _444
REMARK  183  A    between atoms: _444  and  _445
REMARK  184  A    between atoms: _444  and  _447
REMARK  185  A    between atoms: _447  and  _448
REMARK  186  A    between atoms: _451  and  _453
REMARK  187  A    between atoms: _453  and  _454
REMARK  188  A    between atoms: _453  and  _456
REMARK  189  A    between atoms: _456  and  _457
REMARK  190  A    between atoms: _459  and  _461
REMARK  191  A    between atoms: _461  and  _462
REMARK  192  A    between atoms: _464  and  _466
REMARK  193  A    between atoms: _466  and  _467
REMARK  194  A    between atoms: _466  and  _469
REMARK  195  A    between atoms: _469  and  _470
REMARK  196  A    between atoms: _470  and  _802
REMARK  197  A    between atoms: _471  and  _473
REMARK  198  A    between atoms: _473  and  _474
REMARK  199  A    between atoms: _473  and  _476
REMARK  200  A    between atoms: _476  and  _477
REMARK  201  A    between atoms: _482  and  _483
REMARK  202  A    between atoms: _485  and  _487
REMARK  203  A    between atoms: _487  and  _488
REMARK  204  A    between atoms: _487  and  _490
REMARK  205  A    between atoms: _490  and  _491
REMARK  206  A    between atoms: _491  and  _492
REMARK  207  A    between atoms: _497  and  _499
REMARK  208  A    between atoms: _499  and  _500
REMARK  209  A    between atoms: _499  and  _502
REMARK  210  A    between atoms: _502  and  _503
REMARK  211  A    between atoms: _503  and  _504
REMARK  212  A    between atoms: _509  and  _511
REMARK  213  A    between atoms: _511  and  _512
REMARK  214  A    between atoms: _511  and  _514
REMARK  215  A    between atoms: _514  and  _515
REMARK  216  A    between atoms: _520  and  _521
REMARK  217  A    between atoms: _523  and  _525
REMARK  218  A    between atoms: _525  and  _526
REMARK  219  A    between atoms: _529  and  _531
REMARK  220  A    between atoms: _531  and  _532
REMARK  221  A    between atoms: _531  and  _534
REMARK  222  A    between atoms: _534  and  _535
REMARK  223  A    between atoms: _540  and  _541
REMARK  224  A    between atoms: _543  and  _545
REMARK  225  A    between atoms: _545  and  _546
REMARK  226  A    between atoms: _545  and  _548
REMARK  227  A    between atoms: _548  and  _549
REMARK  228  A    between atoms: _552  and  _554
REMARK  229  A    between atoms: _554  and  _555
REMARK  230  A    between atoms: _554  and  _557
REMARK  231  A    between atoms: _559  and  _561
REMARK  232  A    between atoms: _561  and  _562
REMARK  233  A    between atoms: _561  and  _564
REMARK  234  A    between atoms: _564  and  _565
REMARK  235  A    between atoms: _568  and  _570
REMARK  236  A    between atoms: _570  and  _571
REMARK  237  A    between atoms: _570  and  _573
REMARK  238  A    between atoms: _573  and  _574
REMARK  239  A    between atoms: _579  and  _580
REMARK  240  A    between atoms: _582  and  _584
REMARK  241  A    between atoms: _584  and  _585
REMARK  242  A    between atoms: _584  and  _587
REMARK  243  A    between atoms: _587  and  _588
REMARK  244  A    between atoms: _591  and  _593
REMARK  245  A    between atoms: _593  and  _594
REMARK  246  A    between atoms: _593  and  _596
REMARK  247  A    between atoms: _596  and  _597
REMARK  248  A    between atoms: _607  and  _609
REMARK  249  A    between atoms: _609  and  _610
REMARK  250  A    between atoms: _613  and  _615
REMARK  251  A    between atoms: _615  and  _616
REMARK  252  A    between atoms: _619  and  _621
REMARK  253  A    between atoms: _621  and  _622
REMARK  254  A    between atoms: _621  and  _624
REMARK  255  A    between atoms: _624  and  _625
REMARK  256  A    between atoms: _628  and  _630
REMARK  257  A    between atoms: _630  and  _631
REMARK  258  A    between atoms: _630  and  _633
REMARK  259  A    between atoms: _633  and  _634
REMARK  260  A    between atoms: _637  and  _639
REMARK  261  A    between atoms: _639  and  _640
REMARK  262  A    between atoms: _639  and  _642
REMARK  263  A    between atoms: _642  and  _643
REMARK  264  A    between atoms: _646  and  _648
REMARK  265  A    between atoms: _648  and  _649
REMARK  266  A    between atoms: _648  and  _651
REMARK  267  A    between atoms: _651  and  _652
REMARK  268  A    between atoms: _652  and  _653
REMARK  269  A    between atoms: _653  and  _654
REMARK  270  A    between atoms: _654  and  _655
REMARK  271  A    between atoms: _659  and  _661
REMARK  272  A    between atoms: _661  and  _662
REMARK  273  A    between atoms: _661  and  _664
REMARK  274  A    between atoms: _664  and  _665
REMARK  275  A    between atoms: _670  and  _672
REMARK  276  A    between atoms: _672  and  _673
REMARK  277  A    between atoms: _672  and  _675
REMARK  278  A    between atoms: _675  and  _676
REMARK  279  A    between atoms: _676  and  _677
REMARK  280  A    between atoms: _677  and  _678
REMARK  281  A    between atoms: _678  and  _679
REMARK  282  A    between atoms: _683  and  _685
REMARK  283  A    between atoms: _685  and  _686
REMARK  284  A    between atoms: _685  and  _688
REMARK  285  A    between atoms: _688  and  _689
REMARK  286  A    between atoms: _699  and  _701
REMARK  287  A    between atoms: _701  and  _702
REMARK  288  A    between atoms: _701  and  _704
REMARK  289  A    between atoms: _704  and  _705
REMARK  290  A    between atoms: _705  and  _706
REMARK  291  A    between atoms: _711  and  _713
REMARK  292  A    between atoms: _713  and  _714
REMARK  293  A    between atoms: _717  and  _719
REMARK  294  A    between atoms: _719  and  _720
REMARK  295  A    between atoms: _722  and  _724
REMARK  296  A    between atoms: _724  and  _725
REMARK  297  A    between atoms: _724  and  _727
REMARK  298  A    between atoms: _727  and  _728
REMARK  299  A    between atoms: _728  and  _729
REMARK  300  A    between atoms: _732  and  _734
REMARK  301  A    between atoms: _734  and  _735
REMARK  302  A    between atoms: _738  and  _740
REMARK  303  A    between atoms: _740  and  _741
REMARK  304  A    between atoms: _740  and  _743
REMARK  305  A    between atoms: _743  and  _744
REMARK  306  A    between atoms: _744  and  _745
REMARK  307  A    between atoms: _745  and  _746
REMARK  308  A    between atoms: _755  and  _757
REMARK  309  A    between atoms: _757  and  _758
REMARK  310  A    between atoms: _757  and  _760
REMARK  311  A    between atoms: _760  and  _761
REMARK  312  A    between atoms: _764  and  _766
REMARK  313  A    between atoms: _766  and  _767
REMARK  314  A    between atoms: _766  and  _769
REMARK  315  A    between atoms: _769  and  _770
REMARK  316  A    between atoms: _775  and  _776
REMARK  317  A    between atoms: _778  and  _780
REMARK  318  A    between atoms: _780  and  _781
REMARK  319  A    between atoms: _780  and  _783
REMARK  320  A    between atoms: _783  and  _784
REMARK  321  A    between atoms: _787  and  _789
REMARK  322  A    between atoms: _789  and  _790
REMARK  323  A    between atoms: _789  and  _792
REMARK  324  A    between atoms: _792  and  _793
REMARK  325  A    between atoms: _796  and  _798
REMARK  326  A    between atoms: _798  and  _799
REMARK  327  A    between atoms: _798  and  _801
REMARK  328  A    between atoms: _801  and  _802
REMARK  329  A    between atoms: _803  and  _805
REMARK  330  A    between atoms: _805  and  _806
REMARK  331  A    between atoms: _805  and  _808
REMARK  332  A    between atoms: _811  and  _813
REMARK  333  A    between atoms: _813  and  _814
REMARK  334  A    between atoms: _813  and  _816
REMARK  335  A    between atoms: _816  and  _817
REMARK  336  A    between atoms: _817  and  _818
REMARK  337  A    between atoms: _821  and  _823
REMARK  338  A    between atoms: _823  and  _824
REMARK  339  A    between atoms: _823  and  _826
REMARK  340  A    between atoms: _826  and  _827
REMARK  341  A    between atoms: _837  and  _839
REMARK  342  A    between atoms: _839  and  _840
REMARK  343  A    between atoms: _839  and  _842
REMARK  344  A    between atoms: _842  and  _843
REMARK  345  A    between atoms: _846  and  _848
REMARK  346  A    between atoms: _848  and  _849
REMARK  347  A    between atoms: _848  and  _851
REMARK  348  A    between atoms: _851  and  _852
REMARK  349  A    between atoms: _852  and  _853
REMARK  350  A    between atoms: _853  and  _854
REMARK  351  A    between atoms: _863  and  _865
REMARK  352  A    between atoms: _865  and  _866
REMARK  353  A    between atoms: _865  and  _868
REMARK  354  A    between atoms: _868  and  _869
REMARK  355  A    between atoms: _874  and  _875
REMARK                            x       y       z     vdW  Elec       q    Type
REMARK                         _______ _______ _______ _____ _____    ______ ____
ROOT
ATOM      1  CA  TYR A   1      61.414  15.720  -3.618  0.00  0.00    +0.149 C 
ENDROOT
BRANCH   1   2
ATOM      2  C   TYR A   1      60.211  14.778  -3.444  0.00  0.00    +0.239 C 
ATOM      3  O   TYR A   1      59.957  14.292  -2.347  0.00  0.00    -0.274 OA
ATOM      4  N   LEU A   2      59.475  14.520  -4.518  0.00  0.00    -0.298 N 
ATOM      5  H   LEU A   2      59.773  14.891  -5.443  0.00  0.00    +0.150 HD
BRANCH   4   6
ATOM      6  CA  LEU A   2      58.251  13.723  -4.424  0.00  0.00    +0.137 C 
BRANCH   6   7
ATOM      7  C   LEU A   2      58.506  12.274  -4.004  0.00  0.00    +0.227 C 
ATOM      8  O   LEU A   2      57.706  11.703  -3.270  0.00  0.00    -0.286 OA
ENDBRANCH   6   7
BRANCH   6   9
ATOM      9  CB  LEU A   2      57.484  13.741  -5.745  0.00  0.00    +0.028 C 
BRANCH   9  10
ATOM     10  CG  LEU A   2      56.877  15.082  -6.152  0.00  0.00    +0.002 C 
ATOM     11  CD2 LEU A   2      55.777  15.498  -5.184  0.00  0.00    +0.000 C 
ATOM     12  CD1 LEU A   2      56.352  14.977  -7.572  0.00  0.00    +0.000 C 
ENDBRANCH   9  10
ENDBRANCH   6   9
ENDBRANCH   4   6
ENDBRANCH   1   2
BRANCH   1  13
ATOM     13  N   TYR A   1      62.257  15.327  -4.743  0.00  0.00    -0.238 NA
ATOM     14  H   TYR A   1      62.322  15.950  -5.573  0.00  0.00    +0.142 HD
ENDBRANCH   1  13
BRANCH   1  15
ATOM     15  CB  TYR A   1      60.951  17.180  -3.772  0.00  0.00    +0.053 C 
BRANCH  15  16
ATOM     16  CG  TYR A   1      59.835  17.564  -2.836  0.00  0.00    -0.020 A 
ATOM     17  CD2 TYR A   1      60.100  17.969  -1.533  0.00  0.00    -0.001 A 
ATOM     18  CE2 TYR A   1      59.072  18.307  -0.667  0.00  0.00    +0.036 A 
ATOM     19  CZ  TYR A   1      57.762  18.236  -1.102  0.00  0.00    +0.134 A 
ATOM     20  CE1 TYR A   1      57.475  17.834  -2.392  0.00  0.00    +0.036 A 
ATOM     21  CD1 TYR A   1      58.505  17.500  -3.249  0.00  0.00    -0.001 A 
BRANCH  19  22
ATOM     22  OH  TYR A   1      56.734  18.568  -0.246  0.00  0.00    -0.506 OA
ATOM     23  HH  TYR A   1      57.109  18.832   0.631  0.00  0.00    +0.292 HD
ENDBRANCH  19  22
ENDBRANCH  15  16
ENDBRANCH   1  15
TORSDOF 9
REMARK  Name = ../refined-set-2016/4pge/4pge_pocket.pdb
REMARK  355 active torsions:
REMARK  status: ('A' for Active; 'I' for Inactive)
REMARK    1  A    between atoms: _1  and  _3
REMARK    2  A    between atoms: _3  and  _4
REMARK    3  A    between atoms: _3  and  _6
REMARK    4  A    between atoms: _6  and  _7
REMARK    5  A    between atoms: _10  and  _12
REMARK    6  A    between atoms: _12  and  _13
REMARK    7  A    between atoms: _12  and  _15
REMARK    8  A    between atoms: _15  and  _16
REMARK    9  A    between atoms: _16  and  _17
REMARK   10  A    between atoms: _17  and  _18
REMARK   11  A    between atoms: _27  and  _29
REMARK   12  A    between atoms: _29  and  _30
REMARK   13  A    between atoms: _29  and  _32
REMARK   14  A    between atoms: _32  and  _33
REMARK   15  A    between atoms: _38  and  _39
REMARK   16  A    between atoms: _41  and  _43
REMARK   17  A    between atoms: _43  and  _44
REMARK   18  A    between atoms: _43  and  _46
REMARK   19  A    between atoms: _46  and  _47
REMARK   20  A    between atoms: _53  and  _55
REMARK   21  A    between atoms: _55  and  _56
REMARK   22  A    between atoms: _55  and  _58
REMARK   23  A    between atoms: _61  and  _63
REMARK   24  A    between atoms: _63  and  _64
REMARK   25  A    between atoms: _63  and  _66
REMARK   26  A    between atoms: _66  and  _67
REMARK   27  A    between atoms: _70  and  _72
REMARK   28  A    between atoms: _72  and  _73
REMARK   29  A    between atoms: _76  and  _78
REMARK   30  A    between atoms: _78  and  _79
REMARK   31  A    between atoms: _78  and  _81
REMARK   32  A    between atoms: _81  and  _82
REMARK   33  A    between atoms: _87  and  _88
REMARK   34  A    between atoms: _90  and  _92
REMARK   35  A    between atoms: _92  and  _93
REMARK   36  A    between atoms: _92  and  _95
REMARK   37  A    between atoms: _95  and  _96
REMARK   38  A    between atoms: _96  and  _97
REMARK   39  A    between atoms: _99  and  _101
REMARK   40  A    between atoms: _101  and  _102
REMARK   41  A    between atoms: _101  and  _104
REMARK   42  A    between atoms: _104  and  _105
REMARK   43  A    between atoms: _105  and  _106
REMARK   44  A    between atoms: _109  and  _111
REMARK   45  A    between atoms: _111  and  _112
REMARK   46  A    between atoms: _111  and  _114
REMARK   47  A    between atoms: _117  and  _119
REMARK   48  A    between atoms: _119  and  _120
REMARK   49  A    between atoms: _122  and  _124
REMARK   50  A    between atoms: _124  and  _125
REMARK   51  A    between atoms: _124  and  _127
REMARK   52  A    between atoms: _130  and  _132
REMARK   53  A    between atoms: _132  and  _133
REMARK   54  A    between atoms: _132  and  _135
REMARK   55  A    between atoms: _135  and  _136
REMARK   56  A    between atoms: _142  and  _144
REMARK   57  A    between atoms: _144  and  _145
REMARK   58  A    between atoms: _144  and  _147
REMARK   59  A    between atoms: _150  and  _152
REMARK   60  A    between atoms: _152  and  _153
REMARK   61  A    between atoms: _152  and  _155
REMARK   62  A    between atoms: _155  and  _156
REMARK   63  A    between atoms: _161  and  _162
REMARK   64  A    between atoms: _164  and  _166
REMARK   65  A    between atoms: _166  and  _167
REMARK   66  A    between atoms: _166  and  _169
REMARK   67  A    between atoms: _169  and  _170
REMARK   68  A    between atoms: _170  and  _171
REMARK   69  A    between atoms: _173  and  _175
REMARK   70  A    between atoms: _175  and  _176
REMARK   71  A    between atoms: _175  and  _178
REMARK   72  A    between atoms: _178  and  _179
REMARK   73  A    between atoms: _179  and  _180
REMARK   74  A    between atoms: _183  and  _185
REMARK   75  A    between atoms: _185  and  _186
REMARK   76  A    between atoms: _185  and  _188
REMARK   77  A    between atoms: _188  and  _189
REMARK   78  A    between atoms: _189  and  _190
REMARK   79  A    between atoms: _193  and  _195
REMARK   80  A    between atoms: _195  and  _196
REMARK   81  A    between atoms: _195  and  _198
REMARK   82  A    between atoms: _198  and  _199
REMARK   83  A    between atoms: _204  and  _205
REMARK   84  A    between atoms: _207  and  _209
REMARK   85  A    between atoms: _209  and  _210
REMARK   86  A    between atoms: _209  and  _212
REMARK   87  A    between atoms: _212  and  _213
REMARK   88  A    between atoms: _213  and  _214
REMARK   89  A    between atoms: _214  and  _215
REMARK   90  A    between atoms: _224  and  _226
REMARK   91  A    between atoms: _226  and  _227
REMARK   92  A    between atoms: _226  and  _229
REMARK   93  A    between atoms: _229  and  _230
REMARK   94  A    between atoms: _230  and  _231
REMARK   95  A    between atoms: _234  and  _236
REMARK   96  A    between atoms: _236  and  _237
REMARK   97  A    between atoms: _236  and  _239
REMARK   98  A    between atoms: _239  and  _240
REMARK   99  A    between atoms: _243  and  _245
REMARK  100  A    between atoms: _245  and  _246
REMARK  101  A    between atoms: _245  and  _248
REMARK  102  A    between atoms: _248  and  _249
REMARK  103  A    between atoms: _249  and  _250
REMARK  104  A    between atoms: _255  and  _257
REMARK  105  A    between atoms: _257  and  _258
REMARK  106  A    between atoms: _257  and  _260
REMARK  107  A    between atoms: _260  and  _261
REMARK  108  A    between atoms: _261  and  _262
REMARK  109  A    between atoms: _262  and  _263
REMARK  110  A    between atoms: _263  and  _264
REMARK  111  A    between atoms: _268  and  _270
REMARK  112  A    between atoms: _270  and  _271
REMARK  113  A    between atoms: _274  and  _276
REMARK  114  A    between atoms: _276  and  _277
REMARK  115  A    between atoms: _279  and  _281
REMARK  116  A    between atoms: _281  and  _282
REMARK  117  A    between atoms: _281  and  _284
REMARK  118  A    between atoms: _284  and  _285
REMARK  119  A    between atoms: _290  and  _292
REMARK  120  A    between atoms: _292  and  _293
REMARK  121  A    between atoms: _292  and  _295
REMARK  122  A    between atoms: _295  and  _296
REMARK  123  A    between atoms: _296  and  _297
REMARK  124  A    between atoms: _300  and  _302
REMARK  125  A    between atoms: _302  and  _303
REMARK  126  A    between atoms: _302  and  _305
REMARK  127  A    between atoms: _305  and  _306
REMARK  128  A    between atoms: _306  and  _307
REMARK  129  A    between atoms: _312  and  _314
REMARK  130  A    between atoms: _314  and  _315
REMARK  131  A    between atoms: _314  and  _317
REMARK  132  A    between atoms: _317  and  _318
REMARK  133  A    between atoms: _320  and  _322
REMARK  134  A    between atoms: _322  and  _323
REMARK  135  A    between atoms: _322  and  _325
REMARK  136  A    between atoms: _325  and  _326
REMARK  137  A    between atoms: _332  and  _334
REMARK  138  A    between atoms: _334  and  _335
REMARK  139  A    between atoms: _334  and  _337
REMARK  140  A    between atoms: _340  and  _342
REMARK  141  A    between atoms: _342  and  _343
REMARK  142  A    between atoms: _342  and  _345
REMARK  143  A    between atoms: _345  and  _346
REMARK  144  A    between atoms: _349  and  _351
REMARK  145  A    between atoms: _351  and  _352
REMARK  146  A    between atoms: _351  and  _354
REMARK  147  A    between atoms: _354  and  _355
REMARK  148  A    between atoms: _358  and  _360
REMARK  149  A    between atoms: _360  and  _361
REMARK  150  A    between atoms: _360  and  _363
REMARK  151  A    between atoms: _363  and  _364
REMARK  152  A    between atoms: _367  and  _369
REMARK  153  A    between atoms: _369  and  _370
REMARK  154  A    between atoms: _369  and  _372
REMARK  155  A    between atoms: _372  and  _373
REMARK  156  A    between atoms: _376  and  _378
REMARK  157  A    between atoms: _378  and  _379
REMARK  158  A    between atoms: _378  and  _381
REMARK  159  A    between atoms: _381  and  _382
REMARK  160  A    between atoms: _387  and  _388
REMARK  161  A    between atoms: _390  and  _392
REMARK  162  A    between atoms: _392  and  _393
REMARK  163  A    between atoms: _392  and  _395
REMARK  164  A    between atoms: _395  and  _396
REMARK  165  A    between atoms: _401  and  _402
REMARK  166  A    between atoms: _404  and  _406
REMARK  167  A    between atoms: _406  and  _407
REMARK  168  A    between atoms: _406  and  _409
REMARK  169  A    between atoms: _409  and  _410
REMARK  170  A    between atoms: _413  and  _415
REMARK  171  A    between atoms: _415  and  _416
REMARK  172  A    between atoms: _415  and  _418
REMARK  173  A    between atoms: _418  and  _419
REMARK  174  A    between atoms: _422  and  _424
REMARK  175  A    between atoms: _424  and  _425
REMARK  176  A    between atoms: _424  and  _427
REMARK  177  A    between atoms: _427  and  _428
REMARK  178  A    between atoms: _428  and  _429
REMARK  179  A    between atoms: _434  and  _436
REMARK  180  A    between atoms: _436  and  _437
REMARK  181  A    between atoms: _436  and  _439
REMARK  182  A    between atoms: _442  and  _444
REMARK  183  A    between atoms: _444  and  _445
REMARK  184  A    between atoms: _444  and  _447
REMARK  185  A    between atoms: _447  and  _448
REMARK  186  A    between atoms: _451  and  _453
REMARK  187  A    between atoms: _453  and  _454
REMARK  188  A    between atoms: _453  and  _456
REMARK  189  A    between atoms: _456  and  _457
REMARK  190  A    between atoms: _459  and  _461
REMARK  191  A    between atoms: _461  and  _462
REMARK  192  A    between atoms: _464  and  _466
REMARK  193  A    between atoms: _466  and  _467
REMARK  194  A    between atoms: _466  and  _469
REMARK  195  A    between atoms: _469  and  _470
REMARK  196  A    between atoms: _470  and  _802
REMARK  197  A    between atoms: _471  and  _473
REMARK  198  A    between atoms: _473  and  _474
REMARK  199  A    between atoms: _473  and  _476
REMARK  200  A    between atoms: _476  and  _477
REMARK  201  A    between atoms: _482  and  _483
REMARK  202  A    between atoms: _485  and  _487
REMARK  203  A    between atoms: _487  and  _488
REMARK  204  A    between atoms: _487  and  _490
REMARK  205  A    between atoms: _490  and  _491
REMARK  206  A    between atoms: _491  and  _492
REMARK  207  A    between atoms: _497  and  _499
REMARK  208  A    between atoms: _499  and  _500
REMARK  209  A    between atoms: _499  and  _502
REMARK  210  A    between atoms: _502  and  _503
REMARK  211  A    between atoms: _503  and  _504
REMARK  212  A    between atoms: _509  and  _511
REMARK  213  A    between atoms: _511  and  _512
REMARK  214  A    between atoms: _511  and  _514
REMARK  215  A    between atoms: _514  and  _515
REMARK  216  A    between atoms: _520  and  _521
REMARK  217  A    between atoms: _523  and  _525
REMARK  218  A    between atoms: _525  and  _526
REMARK  219  A    between atoms: _529  and  _531
REMARK  220  A    between atoms: _531  and  _532
REMARK  221  A    between atoms: _531  and  _534
REMARK  222  A    between atoms: _534  and  _535
REMARK  223  A    between atoms: _540  and  _541
REMARK  224  A    between atoms: _543  and  _545
REMARK  225  A    between atoms: _545  and  _546
REMARK  226  A    between atoms: _545  and  _548
REMARK  227  A    between atoms: _548  and  _549
REMARK  228  A    between atoms: _552  and  _554
REMARK  229  A    between atoms: _554  and  _555
REMARK  230  A    between atoms: _554  and  _557
REMARK  231  A    between atoms: _559  and  _561
REMARK  232  A    between atoms: _561  and  _562
REMARK  233  A    between atoms: _561  and  _564
REMARK  234  A    between atoms: _564  and  _565
REMARK  235  A    between atoms: _568  and  _570
REMARK  236  A    between atoms: _570  and  _571
REMARK  237  A    between atoms: _570  and  _573
REMARK  238  A    between atoms: _573  and  _574
REMARK  239  A    between atoms: _579  and  _580
REMARK  240  A    between atoms: _582  and  _584
REMARK  241  A    between atoms: _584  and  _585
REMARK  242  A    between atoms: _584  and  _587
REMARK  243  A    between atoms: _587  and  _588
REMARK  244  A    between atoms: _591  and  _593
REMARK  245  A    between atoms: _593  and  _594
REMARK  246  A    between atoms: _593  and  _596
REMARK  247  A    between atoms: _596  and  _597
REMARK  248  A    between atoms: _607  and  _609
REMARK  249  A    between atoms: _609  and  _610
REMARK  250  A    between atoms: _613  and  _615
REMARK  251  A    between atoms: _615  and  _616
REMARK  252  A    between atoms: _619  and  _621
REMARK  253  A    between atoms: _621  and  _622
REMARK  254  A    between atoms: _621  and  _624
REMARK  255  A    between atoms: _624  and  _625
REMARK  256  A    between atoms: _628  and  _630
REMARK  257  A    between atoms: _630  and  _631
REMARK  258  A    between atoms: _630  and  _633
REMARK  259  A    between atoms: _633  and  _634
REMARK  260  A    between atoms: _637  and  _639
REMARK  261  A    between atoms: _639  and  _640
REMARK  262  A    between atoms: _639  and  _642
REMARK  263  A    between atoms: _642  and  _643
REMARK  264  A    between atoms: _646  and  _648
REMARK  265  A    between atoms: _648  and  _649
REMARK  266  A    between atoms: _648  and  _651
REMARK  267  A    between atoms: _651  and  _652
REMARK  268  A    between atoms: _652  and  _653
REMARK  269  A    between atoms: _653  and  _654
REMARK  270  A    between atoms: _654  and  _655
REMARK  271  A    between atoms: _659  and  _661
REMARK  272  A    between atoms: _661  and  _662
REMARK  273  A    between atoms: _661  and  _664
REMARK  274  A    between atoms: _664  and  _665
REMARK  275  A    between atoms: _670  and  _672
REMARK  276  A    between atoms: _672  and  _673
REMARK  277  A    between atoms: _672  and  _675
REMARK  278  A    between atoms: _675  and  _676
REMARK  279  A    between atoms: _676  and  _677
REMARK  280  A    between atoms: _677  and  _678
REMARK  281  A    between atoms: _678  and  _679
REMARK  282  A    between atoms: _683  and  _685
REMARK  283  A    between atoms: _685  and  _686
REMARK  284  A    between atoms: _685  and  _688
REMARK  285  A    between atoms: _688  and  _689
REMARK  286  A    between atoms: _699  and  _701
REMARK  287  A    between atoms: _701  and  _702
REMARK  288  A    between atoms: _701  and  _704
REMARK  289  A    between atoms: _704  and  _705
REMARK  290  A    between atoms: _705  and  _706
REMARK  291  A    between atoms: _711  and  _713
REMARK  292  A    between atoms: _713  and  _714
REMARK  293  A    between atoms: _717  and  _719
REMARK  294  A    between atoms: _719  and  _720
REMARK  295  A    between atoms: _722  and  _724
REMARK  296  A    between atoms: _724  and  _725
REMARK  297  A    between atoms: _724  and  _727
REMARK  298  A    between atoms: _727  and  _728
REMARK  299  A    between atoms: _728  and  _729
REMARK  300  A    between atoms: _732  and  _734
REMARK  301  A    between atoms: _734  and  _735
REMARK  302  A    between atoms: _738  and  _740
REMARK  303  A    between atoms: _740  and  _741
REMARK  304  A    between atoms: _740  and  _743
REMARK  305  A    between atoms: _743  and  _744
REMARK  306  A    between atoms: _744  and  _745
REMARK  307  A    between atoms: _745  and  _746
REMARK  308  A    between atoms: _755  and  _757
REMARK  309  A    between atoms: _757  and  _758
REMARK  310  A    between atoms: _757  and  _760
REMARK  311  A    between atoms: _760  and  _761
REMARK  312  A    between atoms: _764  and  _766
REMARK  313  A    between atoms: _766  and  _767
REMARK  314  A    between atoms: _766  and  _769
REMARK  315  A    between atoms: _769  and  _770
REMARK  316  A    between atoms: _775  and  _776
REMARK  317  A    between atoms: _778  and  _780
REMARK  318  A    between atoms: _780  and  _781
REMARK  319  A    between atoms: _780  and  _783
REMARK  320  A    between atoms: _783  and  _784
REMARK  321  A    between atoms: _787  and  _789
REMARK  322  A    between atoms: _789  and  _790
REMARK  323  A    between atoms: _789  and  _792
REMARK  324  A    between atoms: _792  and  _793
REMARK  325  A    between atoms: _796  and  _798
REMARK  326  A    between atoms: _798  and  _799
REMARK  327  A    between atoms: _798  and  _801
REMARK  328  A    between atoms: _801  and  _802
REMARK  329  A    between atoms: _803  and  _805
REMARK  330  A    between atoms: _805  and  _806
REMARK  331  A    between atoms: _805  and  _808
REMARK  332  A    between atoms: _811  and  _813
REMARK  333  A    between atoms: _813  and  _814
REMARK  334  A    between atoms: _813  and  _816
REMARK  335  A    between atoms: _816  and  _817
REMARK  336  A    between atoms: _817  and  _818
REMARK  337  A    between atoms: _821  and  _823
REMARK  338  A    between atoms: _823  and  _824
REMARK  339  A    between atoms: _823  and  _826
REMARK  340  A    between atoms: _826  and  _827
REMARK  341  A    between atoms: _837  and  _839
REMARK  342  A    between atoms: _839  and  _840
REMARK  343  A    between atoms: _839  and  _842
REMARK  344  A    between atoms: _842  and  _843
REMARK  345  A    between atoms: _846  and  _848
REMARK  346  A    between atoms: _848  and  _849
REMARK  347  A    between atoms: _848  and  _851
REMARK  348  A    between atoms: _851  and  _852
REMARK  349  A    between atoms: _852  and  _853
REMARK  350  A    between atoms: _853  and  _854
REMARK  351  A    between atoms: _863  and  _865
REMARK  352  A    between atoms: _865  and  _866
REMARK  353  A    between atoms: _865  and  _868
REMARK  354  A    between atoms: _868  and  _869
REMARK  355  A    between atoms: _874  and  _875
REMARK                            x       y       z     vdW  Elec       q    Type
REMARK                         _______ _______ _______ _____ _____    ______ ____
ROOT
ATOM      1  C   ARG A   1      56.058  11.465  10.599  0.00  0.00    +0.238 C 
ATOM      2  O   ARG A   1      55.807  11.302  11.799  0.00  0.00    -0.274 OA
ATOM      3  N   TYR A   2      55.259  12.157   9.794  0.00  0.00    -0.298 N 
ATOM      4  H   TYR A   2      55.511  12.273   8.792  0.00  0.00    +0.150 HD
ENDROOT
BRANCH   1   5
ATOM      5  CA  ARG A   1      57.320  10.855   9.985  0.00  0.00    +0.145 C 
BRANCH   5   6
ATOM      6  N   ARG A   1      57.055  10.243   8.684  0.00  0.00    -0.238 NA
ATOM      7  H   ARG A   1      57.538  10.614   7.841  0.00  0.00    +0.142 HD
ENDBRANCH   5   6
BRANCH   5   8
ATOM      8  CB  ARG A   1      58.428  11.906   9.865  0.00  0.00    +0.030 C 
BRANCH   8   9
ATOM      9  CG  ARG A   1      58.696  12.705  11.132  0.00  0.00    +0.045 C 
BRANCH   9  10
ATOM     10  CD  ARG A   1      59.816  13.694  10.886  0.00  0.00    +0.174 C 
BRANCH  10  11
ATOM     11  NE  ARG A   1      59.986  14.636  11.984  0.00  0.00    -0.265 N 
ATOM     12  CZ  ARG A   1      60.606  14.369  13.133  0.00  0.00    +0.342 C 
ATOM     13  NH2 ARG A   1      60.713  15.317  14.055  0.00  0.00    -0.292 N 
ATOM     14 HH21 ARG A   1      61.196  15.116  14.954  0.00  0.00    +0.255 HD
ATOM     15 HH22 ARG A   1      60.314  16.261  13.879  0.00  0.00    +0.255 HD
ATOM     16  NH1 ARG A   1      61.116  13.162  13.376  0.00  0.00    -0.292 N 
ATOM     17 HH11 ARG A   1      61.596  12.973  14.279  0.00  0.00    +0.255 HD
ATOM     18 HH12 ARG A   1      61.034  12.409  12.663  0.00  0.00    +0.255 HD
ATOM     19  HE  ARG A   1      59.593  15.591  11.862  0.00  0.00    +0.259 HD
ENDBRANCH  10  11
ENDBRANCH   9  10
ENDBRANCH   8   9
ENDBRANCH   5   8
ENDBRANCH   1   5
BRANCH   3  20
ATOM     20  CA  TYR A   2      54.021  12.760  10.310  0.00  0.00    +0.141 C 
BRANCH  20  21
ATOM     21  C   TYR A   2      53.005  11.696  10.709  0.00  0.00    +0.227 C 
ATOM     22  O   TYR A   2      52.310  11.843  11.718  0.00  0.00    -0.286 OA
ENDBRANCH  20  21
BRANCH  20  23
ATOM     23  CB  TYR A   2      53.385  13.700   9.292  0.00  0.00    +0.054 C 
BRANCH  23  24
ATOM     24  CG  TYR A   2      54.262  14.852   8.852  0.00  0.00    -0.020 A 
ATOM     25  CD2 TYR A   2      55.035  15.568   9.762  0.00  0.00    -0.001 A 
ATOM     26  CE2 TYR A   2      55.833  16.628   9.348  0.00  0.00    +0.036 A 
ATOM     27  CZ  TYR A   2      55.843  16.989   8.010  0.00  0.00    +0.134 A 
ATOM     28  CE1 TYR A   2      55.074  16.301   7.099  0.00  0.00    +0.036 A 
ATOM     29  CD1 TYR A   2      54.291  15.243   7.521  0.00  0.00    -0.001 A 
BRANCH  27  30
ATOM     30  OH  TYR A   2      56.609  18.039   7.560  0.00  0.00    -0.506 OA
ATOM     31  HH  TYR A   2      57.104  18.435   8.321  0.00  0.00    +0.292 HD
ENDBRANCH  27  30
ENDBRANCH  23  24
ENDBRANCH  20  23
ENDBRANCH   3  20
TORSDOF 11
REMARK  Name = ../refined-set-2016/4pge/4pge_pocket.pdb
REMARK  355 active torsions:
REMARK  status: ('A' for Active; 'I' for Inactive)
REMARK    1  A    between atoms: _1  and  _3
REMARK    2  A    between atoms: _3  and  _4
REMARK    3  A    between atoms: _3  and  _6
REMARK    4  A    between atoms: _6  and  _7
REMARK    5  A    between atoms: _10  and  _12
REMARK    6  A    between atoms: _12  and  _13
REMARK    7  A    between atoms: _12  and  _15
REMARK    8  A    between atoms: _15  and  _16
REMARK    9  A    between atoms: _16  and  _17
REMARK   10  A    between atoms: _17  and  _18
REMARK   11  A    between atoms: _27  and  _29
REMARK   12  A    between atoms: _29  and  _30
REMARK   13  A    between atoms: _29  and  _32
REMARK   14  A    between atoms: _32  and  _33
REMARK   15  A    between atoms: _38  and  _39
REMARK   16  A    between atoms: _41  and  _43
REMARK   17  A    between atoms: _43  and  _44
REMARK   18  A    between atoms: _43  and  _46
REMARK   19  A    between atoms: _46  and  _47
REMARK   20  A    between atoms: _53  and  _55
REMARK   21  A    between atoms: _55  and  _56
REMARK   22  A    between atoms: _55  and  _58
REMARK   23  A    between atoms: _61  and  _63
REMARK   24  A    between atoms: _63  and  _64
REMARK   25  A    between atoms: _63  and  _66
REMARK   26  A    between atoms: _66  and  _67
REMARK   27  A    between atoms: _70  and  _72
REMARK   28  A    between atoms: _72  and  _73
REMARK   29  A    between atoms: _76  and  _78
REMARK   30  A    between atoms: _78  and  _79
REMARK   31  A    between atoms: _78  and  _81
REMARK   32  A    between atoms: _81  and  _82
REMARK   33  A    between atoms: _87  and  _88
REMARK   34  A    between atoms: _90  and  _92
REMARK   35  A    between atoms: _92  and  _93
REMARK   36  A    between atoms: _92  and  _95
REMARK   37  A    between atoms: _95  and  _96
REMARK   38  A    between atoms: _96  and  _97
REMARK   39  A    between atoms: _99  and  _101
REMARK   40  A    between atoms: _101  and  _102
REMARK   41  A    between atoms: _101  and  _104
REMARK   42  A    between atoms: _104  and  _105
REMARK   43  A    between atoms: _105  and  _106
REMARK   44  A    between atoms: _109  and  _111
REMARK   45  A    between atoms: _111  and  _112
REMARK   46  A    between atoms: _111  and  _114
REMARK   47  A    between atoms: _117  and  _119
REMARK   48  A    between atoms: _119  and  _120
REMARK   49  A    between atoms: _122  and  _124
REMARK   50  A    between atoms: _124  and  _125
REMARK   51  A    between atoms: _124  and  _127
REMARK   52  A    between atoms: _130  and  _132
REMARK   53  A    between atoms: _132  and  _133
REMARK   54  A    between atoms: _132  and  _135
REMARK   55  A    between atoms: _135  and  _136
REMARK   56  A    between atoms: _142  and  _144
REMARK   57  A    between atoms: _144  and  _145
REMARK   58  A    between atoms: _144  and  _147
REMARK   59  A    between atoms: _150  and  _152
REMARK   60  A    between atoms: _152  and  _153
REMARK   61  A    between atoms: _152  and  _155
REMARK   62  A    between atoms: _155  and  _156
REMARK   63  A    between atoms: _161  and  _162
REMARK   64  A    between atoms: _164  and  _166
REMARK   65  A    between atoms: _166  and  _167
REMARK   66  A    between atoms: _166  and  _169
REMARK   67  A    between atoms: _169  and  _170
REMARK   68  A    between atoms: _170  and  _171
REMARK   69  A    between atoms: _173  and  _175
REMARK   70  A    between atoms: _175  and  _176
REMARK   71  A    between atoms: _175  and  _178
REMARK   72  A    between atoms: _178  and  _179
REMARK   73  A    between atoms: _179  and  _180
REMARK   74  A    between atoms: _183  and  _185
REMARK   75  A    between atoms: _185  and  _186
REMARK   76  A    between atoms: _185  and  _188
REMARK   77  A    between atoms: _188  and  _189
REMARK   78  A    between atoms: _189  and  _190
REMARK   79  A    between atoms: _193  and  _195
REMARK   80  A    between atoms: _195  and  _196
REMARK   81  A    between atoms: _195  and  _198
REMARK   82  A    between atoms: _198  and  _199
REMARK   83  A    between atoms: _204  and  _205
REMARK   84  A    between atoms: _207  and  _209
REMARK   85  A    between atoms: _209  and  _210
REMARK   86  A    between atoms: _209  and  _212
REMARK   87  A    between atoms: _212  and  _213
REMARK   88  A    between atoms: _213  and  _214
REMARK   89  A    between atoms: _214  and  _215
REMARK   90  A    between atoms: _224  and  _226
REMARK   91  A    between atoms: _226  and  _227
REMARK   92  A    between atoms: _226  and  _229
REMARK   93  A    between atoms: _229  and  _230
REMARK   94  A    between atoms: _230  and  _231
REMARK   95  A    between atoms: _234  and  _236
REMARK   96  A    between atoms: _236  and  _237
REMARK   97  A    between atoms: _236  and  _239
REMARK   98  A    between atoms: _239  and  _240
REMARK   99  A    between atoms: _243  and  _245
REMARK  100  A    between atoms: _245  and  _246
REMARK  101  A    between atoms: _245  and  _248
REMARK  102  A    between atoms: _248  and  _249
REMARK  103  A    between atoms: _249  and  _250
REMARK  104  A    between atoms: _255  and  _257
REMARK  105  A    between atoms: _257  and  _258
REMARK  106  A    between atoms: _257  and  _260
REMARK  107  A    between atoms: _260  and  _261
REMARK  108  A    between atoms: _261  and  _262
REMARK  109  A    between atoms: _262  and  _263
REMARK  110  A    between atoms: _263  and  _264
REMARK  111  A    between atoms: _268  and  _270
REMARK  112  A    between atoms: _270  and  _271
REMARK  113  A    between atoms: _274  and  _276
REMARK  114  A    between atoms: _276  and  _277
REMARK  115  A    between atoms: _279  and  _281
REMARK  116  A    between atoms: _281  and  _282
REMARK  117  A    between atoms: _281  and  _284
REMARK  118  A    between atoms: _284  and  _285
REMARK  119  A    between atoms: _290  and  _292
REMARK  120  A    between atoms: _292  and  _293
REMARK  121  A    between atoms: _292  and  _295
REMARK  122  A    between atoms: _295  and  _296
REMARK  123  A    between atoms: _296  and  _297
REMARK  124  A    between atoms: _300  and  _302
REMARK  125  A    between atoms: _302  and  _303
REMARK  126  A    between atoms: _302  and  _305
REMARK  127  A    between atoms: _305  and  _306
REMARK  128  A    between atoms: _306  and  _307
REMARK  129  A    between atoms: _312  and  _314
REMARK  130  A    between atoms: _314  and  _315
REMARK  131  A    between atoms: _314  and  _317
REMARK  132  A    between atoms: _317  and  _318
REMARK  133  A    between atoms: _320  and  _322
REMARK  134  A    between atoms: _322  and  _323
REMARK  135  A    between atoms: _322  and  _325
REMARK  136  A    between atoms: _325  and  _326
REMARK  137  A    between atoms: _332  and  _334
REMARK  138  A    between atoms: _334  and  _335
REMARK  139  A    between atoms: _334  and  _337
REMARK  140  A    between atoms: _340  and  _342
REMARK  141  A    between atoms: _342  and  _343
REMARK  142  A    between atoms: _342  and  _345
REMARK  143  A    between atoms: _345  and  _346
REMARK  144  A    between atoms: _349  and  _351
REMARK  145  A    between atoms: _351  and  _352
REMARK  146  A    between atoms: _351  and  _354
REMARK  147  A    between atoms: _354  and  _355
REMARK  148  A    between atoms: _358  and  _360
REMARK  149  A    between atoms: _360  and  _361
REMARK  150  A    between atoms: _360  and  _363
REMARK  151  A    between atoms: _363  and  _364
REMARK  152  A    between atoms: _367  and  _369
REMARK  153  A    between atoms: _369  and  _370
REMARK  154  A    between atoms: _369  and  _372
REMARK  155  A    between atoms: _372  and  _373
REMARK  156  A    between atoms: _376  and  _378
REMARK  157  A    between atoms: _378  and  _379
REMARK  158  A    between atoms: _378  and  _381
REMARK  159  A    between atoms: _381  and  _382
REMARK  160  A    between atoms: _387  and  _388
REMARK  161  A    between atoms: _390  and  _392
REMARK  162  A    between atoms: _392  and  _393
REMARK  163  A    between atoms: _392  and  _395
REMARK  164  A    between atoms: _395  and  _396
REMARK  165  A    between atoms: _401  and  _402
REMARK  166  A    between atoms: _404  and  _406
REMARK  167  A    between atoms: _406  and  _407
REMARK  168  A    between atoms: _406  and  _409
REMARK  169  A    between atoms: _409  and  _410
REMARK  170  A    between atoms: _413  and  _415
REMARK  171  A    between atoms: _415  and  _416
REMARK  172  A    between atoms: _415  and  _418
REMARK  173  A    between atoms: _418  and  _419
REMARK  174  A    between atoms: _422  and  _424
REMARK  175  A    between atoms: _424  and  _425
REMARK  176  A    between atoms: _424  and  _427
REMARK  177  A    between atoms: _427  and  _428
REMARK  178  A    between atoms: _428  and  _429
REMARK  179  A    between atoms: _434  and  _436
REMARK  180  A    between atoms: _436  and  _437
REMARK  181  A    between atoms: _436  and  _439
REMARK  182  A    between atoms: _442  and  _444
REMARK  183  A    between atoms: _444  and  _445
REMARK  184  A    between atoms: _444  and  _447
REMARK  185  A    between atoms: _447  and  _448
REMARK  186  A    between atoms: _451  and  _453
REMARK  187  A    between atoms: _453  and  _454
REMARK  188  A    between atoms: _453  and  _456
REMARK  189  A    between atoms: _456  and  _457
REMARK  190  A    between atoms: _459  and  _461
REMARK  191  A    between atoms: _461  and  _462
REMARK  192  A    between atoms: _464  and  _466
REMARK  193  A    between atoms: _466  and  _467
REMARK  194  A    between atoms: _466  and  _469
REMARK  195  A    between atoms: _469  and  _470
REMARK  196  A    between atoms: _470  and  _802
REMARK  197  A    between atoms: _471  and  _473
REMARK  198  A    between atoms: _473  and  _474
REMARK  199  A    between atoms: _473  and  _476
REMARK  200  A    between atoms: _476  and  _477
REMARK  201  A    between atoms: _482  and  _483
REMARK  202  A    between atoms: _485  and  _487
REMARK  203  A    between atoms: _487  and  _488
REMARK  204  A    between atoms: _487  and  _490
REMARK  205  A    between atoms: _490  and  _491
REMARK  206  A    between atoms: _491  and  _492
REMARK  207  A    between atoms: _497  and  _499
REMARK  208  A    between atoms: _499  and  _500
REMARK  209  A    between atoms: _499  and  _502
REMARK  210  A    between atoms: _502  and  _503
REMARK  211  A    between atoms: _503  and  _504
REMARK  212  A    between atoms: _509  and  _511
REMARK  213  A    between atoms: _511  and  _512
REMARK  214  A    between atoms: _511  and  _514
REMARK  215  A    between atoms: _514  and  _515
REMARK  216  A    between atoms: _520  and  _521
REMARK  217  A    between atoms: _523  and  _525
REMARK  218  A    between atoms: _525  and  _526
REMARK  219  A    between atoms: _529  and  _531
REMARK  220  A    between atoms: _531  and  _532
REMARK  221  A    between atoms: _531  and  _534
REMARK  222  A    between atoms: _534  and  _535
REMARK  223  A    between atoms: _540  and  _541
REMARK  224  A    between atoms: _543  and  _545
REMARK  225  A    between atoms: _545  and  _546
REMARK  226  A    between atoms: _545  and  _548
REMARK  227  A    between atoms: _548  and  _549
REMARK  228  A    between atoms: _552  and  _554
REMARK  229  A    between atoms: _554  and  _555
REMARK  230  A    between atoms: _554  and  _557
REMARK  231  A    between atoms: _559  and  _561
REMARK  232  A    between atoms: _561  and  _562
REMARK  233  A    between atoms: _561  and  _564
REMARK  234  A    between atoms: _564  and  _565
REMARK  235  A    between atoms: _568  and  _570
REMARK  236  A    between atoms: _570  and  _571
REMARK  237  A    between atoms: _570  and  _573
REMARK  238  A    between atoms: _573  and  _574
REMARK  239  A    between atoms: _579  and  _580
REMARK  240  A    between atoms: _582  and  _584
REMARK  241  A    between atoms: _584  and  _585
REMARK  242  A    between atoms: _584  and  _587
REMARK  243  A    between atoms: _587  and  _588
REMARK  244  A    between atoms: _591  and  _593
REMARK  245  A    between atoms: _593  and  _594
REMARK  246  A    between atoms: _593  and  _596
REMARK  247  A    between atoms: _596  and  _597
REMARK  248  A    between atoms: _607  and  _609
REMARK  249  A    between atoms: _609  and  _610
REMARK  250  A    between atoms: _613  and  _615
REMARK  251  A    between atoms: _615  and  _616
REMARK  252  A    between atoms: _619  and  _621
REMARK  253  A    between atoms: _621  and  _622
REMARK  254  A    between atoms: _621  and  _624
REMARK  255  A    between atoms: _624  and  _625
REMARK  256  A    between atoms: _628  and  _630
REMARK  257  A    between atoms: _630  and  _631
REMARK  258  A    between atoms: _630  and  _633
REMARK  259  A    between atoms: _633  and  _634
REMARK  260  A    between atoms: _637  and  _639
REMARK  261  A    between atoms: _639  and  _640
REMARK  262  A    between atoms: _639  and  _642
REMARK  263  A    between atoms: _642  and  _643
REMARK  264  A    between atoms: _646  and  _648
REMARK  265  A    between atoms: _648  and  _649
REMARK  266  A    between atoms: _648  and  _651
REMARK  267  A    between atoms: _651  and  _652
REMARK  268  A    between atoms: _652  and  _653
REMARK  269  A    between atoms: _653  and  _654
REMARK  270  A    between atoms: _654  and  _655
REMARK  271  A    between atoms: _659  and  _661
REMARK  272  A    between atoms: _661  and  _662
REMARK  273  A    between atoms: _661  and  _664
REMARK  274  A    between atoms: _664  and  _665
REMARK  275  A    between atoms: _670  and  _672
REMARK  276  A    between atoms: _672  and  _673
REMARK  277  A    between atoms: _672  and  _675
REMARK  278  A    between atoms: _675  and  _676
REMARK  279  A    between atoms: _676  and  _677
REMARK  280  A    between atoms: _677  and  _678
REMARK  281  A    between atoms: _678  and  _679
REMARK  282  A    between atoms: _683  and  _685
REMARK  283  A    between atoms: _685  and  _686
REMARK  284  A    between atoms: _685  and  _688
REMARK  285  A    between atoms: _688  and  _689
REMARK  286  A    between atoms: _699  and  _701
REMARK  287  A    between atoms: _701  and  _702
REMARK  288  A    between atoms: _701  and  _704
REMARK  289  A    between atoms: _704  and  _705
REMARK  290  A    between atoms: _705  and  _706
REMARK  291  A    between atoms: _711  and  _713
REMARK  292  A    between atoms: _713  and  _714
REMARK  293  A    between atoms: _717  and  _719
REMARK  294  A    between atoms: _719  and  _720
REMARK  295  A    between atoms: _722  and  _724
REMARK  296  A    between atoms: _724  and  _725
REMARK  297  A    between atoms: _724  and  _727
REMARK  298  A    between atoms: _727  and  _728
REMARK  299  A    between atoms: _728  and  _729
REMARK  300  A    between atoms: _732  and  _734
REMARK  301  A    between atoms: _734  and  _735
REMARK  302  A    between atoms: _738  and  _740
REMARK  303  A    between atoms: _740  and  _741
REMARK  304  A    between atoms: _740  and  _743
REMARK  305  A    between atoms: _743  and  _744
REMARK  306  A    between atoms: _744  and  _745
REMARK  307  A    between atoms: _745  and  _746
REMARK  308  A    between atoms: _755  and  _757
REMARK  309  A    between atoms: _757  and  _758
REMARK  310  A    between atoms: _757  and  _760
REMARK  311  A    between atoms: _760  and  _761
REMARK  312  A    between atoms: _764  and  _766
REMARK  313  A    between atoms: _766  and  _767
REMARK  314  A    between atoms: _766  and  _769
REMARK  315  A    between atoms: _769  and  _770
REMARK  316  A    between atoms: _775  and  _776
REMARK  317  A    between atoms: _778  and  _780
REMARK  318  A    between atoms: _780  and  _781
REMARK  319  A    between atoms: _780  and  _783
REMARK  320  A    between atoms: _783  and  _784
REMARK  321  A    between atoms: _787  and  _789
REMARK  322  A    between atoms: _789  and  _790
REMARK  323  A    between atoms: _789  and  _792
REMARK  324  A    between atoms: _792  and  _793
REMARK  325  A    between atoms: _796  and  _798
REMARK  326  A    between atoms: _798  and  _799
REMARK  327  A    between atoms: _798  and  _801
REMARK  328  A    between atoms: _801  and  _802
REMARK  329  A    between atoms: _803  and  _805
REMARK  330  A    between atoms: _805  and  _806
REMARK  331  A    between atoms: _805  and  _808
REMARK  332  A    between atoms: _811  and  _813
REMARK  333  A    between atoms: _813  and  _814
REMARK  334  A    between atoms: _813  and  _816
REMARK  335  A    between atoms: _816  and  _817
REMARK  336  A    between atoms: _817  and  _818
REMARK  337  A    between atoms: _821  and  _823
REMARK  338  A    between atoms: _823  and  _824
REMARK  339  A    between atoms: _823  and  _826
REMARK  340  A    between atoms: _826  and  _827
REMARK  341  A    between atoms: _837  and  _839
REMARK  342  A    between atoms: _839  and  _840
REMARK  343  A    between atoms: _839  and  _842
REMARK  344  A    between atoms: _842  and  _843
REMARK  345  A    between atoms: _846  and  _848
REMARK  346  A    between atoms: _848  and  _849
REMARK  347  A    between atoms: _848  and  _851
REMARK  348  A    between atoms: _851  and  _852
REMARK  349  A    between atoms: _852  and  _853
REMARK  350  A    between atoms: _853  and  _854
REMARK  351  A    between atoms: _863  and  _865
REMARK  352  A    between atoms: _865  and  _866
REMARK  353  A    between atoms: _865  and  _868
REMARK  354  A    between atoms: _868  and  _869
REMARK  355  A    between atoms: _874  and  _875
REMARK                            x       y       z     vdW  Elec       q    Type
REMARK                         _______ _______ _______ _____ _____    ______ ____
ROOT
ATOM      1  O   HOH     1      57.086  30.240  -8.907  0.00  0.00    +0.000 OA
ENDROOT
TORSDOF 0
REMARK  Name = ../refined-set-2016/4pge/4pge_pocket.pdb
REMARK  355 active torsions:
REMARK  status: ('A' for Active; 'I' for Inactive)
REMARK    1  A    between atoms: _1  and  _3
REMARK    2  A    between atoms: _3  and  _4
REMARK    3  A    between atoms: _3  and  _6
REMARK    4  A    between atoms: _6  and  _7
REMARK    5  A    between atoms: _10  and  _12
REMARK    6  A    between atoms: _12  and  _13
REMARK    7  A    between atoms: _12  and  _15
REMARK    8  A    between atoms: _15  and  _16
REMARK    9  A    between atoms: _16  and  _17
REMARK   10  A    between atoms: _17  and  _18
REMARK   11  A    between atoms: _27  and  _29
REMARK   12  A    between atoms: _29  and  _30
REMARK   13  A    between atoms: _29  and  _32
REMARK   14  A    between atoms: _32  and  _33
REMARK   15  A    between atoms: _38  and  _39
REMARK   16  A    between atoms: _41  and  _43
REMARK   17  A    between atoms: _43  and  _44
REMARK   18  A    between atoms: _43  and  _46
REMARK   19  A    between atoms: _46  and  _47
REMARK   20  A    between atoms: _53  and  _55
REMARK   21  A    between atoms: _55  and  _56
REMARK   22  A    between atoms: _55  and  _58
REMARK   23  A    between atoms: _61  and  _63
REMARK   24  A    between atoms: _63  and  _64
REMARK   25  A    between atoms: _63  and  _66
REMARK   26  A    between atoms: _66  and  _67
REMARK   27  A    between atoms: _70  and  _72
REMARK   28  A    between atoms: _72  and  _73
REMARK   29  A    between atoms: _76  and  _78
REMARK   30  A    between atoms: _78  and  _79
REMARK   31  A    between atoms: _78  and  _81
REMARK   32  A    between atoms: _81  and  _82
REMARK   33  A    between atoms: _87  and  _88
REMARK   34  A    between atoms: _90  and  _92
REMARK   35  A    between atoms: _92  and  _93
REMARK   36  A    between atoms: _92  and  _95
REMARK   37  A    between atoms: _95  and  _96
REMARK   38  A    between atoms: _96  and  _97
REMARK   39  A    between atoms: _99  and  _101
REMARK   40  A    between atoms: _101  and  _102
REMARK   41  A    between atoms: _101  and  _104
REMARK   42  A    between atoms: _104  and  _105
REMARK   43  A    between atoms: _105  and  _106
REMARK   44  A    between atoms: _109  and  _111
REMARK   45  A    between atoms: _111  and  _112
REMARK   46  A    between atoms: _111  and  _114
REMARK   47  A    between atoms: _117  and  _119
REMARK   48  A    between atoms: _119  and  _120
REMARK   49  A    between atoms: _122  and  _124
REMARK   50  A    between atoms: _124  and  _125
REMARK   51  A    between atoms: _124  and  _127
REMARK   52  A    between atoms: _130  and  _132
REMARK   53  A    between atoms: _132  and  _133
REMARK   54  A    between atoms: _132  and  _135
REMARK   55  A    between atoms: _135  and  _136
REMARK   56  A    between atoms: _142  and  _144
REMARK   57  A    between atoms: _144  and  _145
REMARK   58  A    between atoms: _144  and  _147
REMARK   59  A    between atoms: _150  and  _152
REMARK   60  A    between atoms: _152  and  _153
REMARK   61  A    between atoms: _152  and  _155
REMARK   62  A    between atoms: _155  and  _156
REMARK   63  A    between atoms: _161  and  _162
REMARK   64  A    between atoms: _164  and  _166
REMARK   65  A    between atoms: _166  and  _167
REMARK   66  A    between atoms: _166  and  _169
REMARK   67  A    between atoms: _169  and  _170
REMARK   68  A    between atoms: _170  and  _171
REMARK   69  A    between atoms: _173  and  _175
REMARK   70  A    between atoms: _175  and  _176
REMARK   71  A    between atoms: _175  and  _178
REMARK   72  A    between atoms: _178  and  _179
REMARK   73  A    between atoms: _179  and  _180
REMARK   74  A    between atoms: _183  and  _185
REMARK   75  A    between atoms: _185  and  _186
REMARK   76  A    between atoms: _185  and  _188
REMARK   77  A    between atoms: _188  and  _189
REMARK   78  A    between atoms: _189  and  _190
REMARK   79  A    between atoms: _193  and  _195
REMARK   80  A    between atoms: _195  and  _196
REMARK   81  A    between atoms: _195  and  _198
REMARK   82  A    between atoms: _198  and  _199
REMARK   83  A    between atoms: _204  and  _205
REMARK   84  A    between atoms: _207  and  _209
REMARK   85  A    between atoms: _209  and  _210
REMARK   86  A    between atoms: _209  and  _212
REMARK   87  A    between atoms: _212  and  _213
REMARK   88  A    between atoms: _213  and  _214
REMARK   89  A    between atoms: _214  and  _215
REMARK   90  A    between atoms: _224  and  _226
REMARK   91  A    between atoms: _226  and  _227
REMARK   92  A    between atoms: _226  and  _229
REMARK   93  A    between atoms: _229  and  _230
REMARK   94  A    between atoms: _230  and  _231
REMARK   95  A    between atoms: _234  and  _236
REMARK   96  A    between atoms: _236  and  _237
REMARK   97  A    between atoms: _236  and  _239
REMARK   98  A    between atoms: _239  and  _240
REMARK   99  A    between atoms: _243  and  _245
REMARK  100  A    between atoms: _245  and  _246
REMARK  101  A    between atoms: _245  and  _248
REMARK  102  A    between atoms: _248  and  _249
REMARK  103  A    between atoms: _249  and  _250
REMARK  104  A    between atoms: _255  and  _257
REMARK  105  A    between atoms: _257  and  _258
REMARK  106  A    between atoms: _257  and  _260
REMARK  107  A    between atoms: _260  and  _261
REMARK  108  A    between atoms: _261  and  _262
REMARK  109  A    between atoms: _262  and  _263
REMARK  110  A    between atoms: _263  and  _264
REMARK  111  A    between atoms: _268  and  _270
REMARK  112  A    between atoms: _270  and  _271
REMARK  113  A    between atoms: _274  and  _276
REMARK  114  A    between atoms: _276  and  _277
REMARK  115  A    between atoms: _279  and  _281
REMARK  116  A    between atoms: _281  and  _282
REMARK  117  A    between atoms: _281  and  _284
REMARK  118  A    between atoms: _284  and  _285
REMARK  119  A    between atoms: _290  and  _292
REMARK  120  A    between atoms: _292  and  _293
REMARK  121  A    between atoms: _292  and  _295
REMARK  122  A    between atoms: _295  and  _296
REMARK  123  A    between atoms: _296  and  _297
REMARK  124  A    between atoms: _300  and  _302
REMARK  125  A    between atoms: _302  and  _303
REMARK  126  A    between atoms: _302  and  _305
REMARK  127  A    between atoms: _305  and  _306
REMARK  128  A    between atoms: _306  and  _307
REMARK  129  A    between atoms: _312  and  _314
REMARK  130  A    between atoms: _314  and  _315
REMARK  131  A    between atoms: _314  and  _317
REMARK  132  A    between atoms: _317  and  _318
REMARK  133  A    between atoms: _320  and  _322
REMARK  134  A    between atoms: _322  and  _323
REMARK  135  A    between atoms: _322  and  _325
REMARK  136  A    between atoms: _325  and  _326
REMARK  137  A    between atoms: _332  and  _334
REMARK  138  A    between atoms: _334  and  _335
REMARK  139  A    between atoms: _334  and  _337
REMARK  140  A    between atoms: _340  and  _342
REMARK  141  A    between atoms: _342  and  _343
REMARK  142  A    between atoms: _342  and  _345
REMARK  143  A    between atoms: _345  and  _346
REMARK  144  A    between atoms: _349  and  _351
REMARK  145  A    between atoms: _351  and  _352
REMARK  146  A    between atoms: _351  and  _354
REMARK  147  A    between atoms: _354  and  _355
REMARK  148  A    between atoms: _358  and  _360
REMARK  149  A    between atoms: _360  and  _361
REMARK  150  A    between atoms: _360  and  _363
REMARK  151  A    between atoms: _363  and  _364
REMARK  152  A    between atoms: _367  and  _369
REMARK  153  A    between atoms: _369  and  _370
REMARK  154  A    between atoms: _369  and  _372
REMARK  155  A    between atoms: _372  and  _373
REMARK  156  A    between atoms: _376  and  _378
REMARK  157  A    between atoms: _378  and  _379
REMARK  158  A    between atoms: _378  and  _381
REMARK  159  A    between atoms: _381  and  _382
REMARK  160  A    between atoms: _387  and  _388
REMARK  161  A    between atoms: _390  and  _392
REMARK  162  A    between atoms: _392  and  _393
REMARK  163  A    between atoms: _392  and  _395
REMARK  164  A    between atoms: _395  and  _396
REMARK  165  A    between atoms: _401  and  _402
REMARK  166  A    between atoms: _404  and  _406
REMARK  167  A    between atoms: _406  and  _407
REMARK  168  A    between atoms: _406  and  _409
REMARK  169  A    between atoms: _409  and  _410
REMARK  170  A    between atoms: _413  and  _415
REMARK  171  A    between atoms: _415  and  _416
REMARK  172  A    between atoms: _415  and  _418
REMARK  173  A    between atoms: _418  and  _419
REMARK  174  A    between atoms: _422  and  _424
REMARK  175  A    between atoms: _424  and  _425
REMARK  176  A    between atoms: _424  and  _427
REMARK  177  A    between atoms: _427  and  _428
REMARK  178  A    between atoms: _428  and  _429
REMARK  179  A    between atoms: _434  and  _436
REMARK  180  A    between atoms: _436  and  _437
REMARK  181  A    between atoms: _436  and  _439
REMARK  182  A    between atoms: _442  and  _444
REMARK  183  A    between atoms: _444  and  _445
REMARK  184  A    between atoms: _444  and  _447
REMARK  185  A    between atoms: _447  and  _448
REMARK  186  A    between atoms: _451  and  _453
REMARK  187  A    between atoms: _453  and  _454
REMARK  188  A    between atoms: _453  and  _456
REMARK  189  A    between atoms: _456  and  _457
REMARK  190  A    between atoms: _459  and  _461
REMARK  191  A    between atoms: _461  and  _462
REMARK  192  A    between atoms: _464  and  _466
REMARK  193  A    between atoms: _466  and  _467
REMARK  194  A    between atoms: _466  and  _469
REMARK  195  A    between atoms: _469  and  _470
REMARK  196  A    between atoms: _470  and  _802
REMARK  197  A    between atoms: _471  and  _473
REMARK  198  A    between atoms: _473  and  _474
REMARK  199  A    between atoms: _473  and  _476
REMARK  200  A    between atoms: _476  and  _477
REMARK  201  A    between atoms: _482  and  _483
REMARK  202  A    between atoms: _485  and  _487
REMARK  203  A    between atoms: _487  and  _488
REMARK  204  A    between atoms: _487  and  _490
REMARK  205  A    between atoms: _490  and  _491
REMARK  206  A    between atoms: _491  and  _492
REMARK  207  A    between atoms: _497  and  _499
REMARK  208  A    between atoms: _499  and  _500
REMARK  209  A    between atoms: _499  and  _502
REMARK  210  A    between atoms: _502  and  _503
REMARK  211  A    between atoms: _503  and  _504
REMARK  212  A    between atoms: _509  and  _511
REMARK  213  A    between atoms: _511  and  _512
REMARK  214  A    between atoms: _511  and  _514
REMARK  215  A    between atoms: _514  and  _515
REMARK  216  A    between atoms: _520  and  _521
REMARK  217  A    between atoms: _523  and  _525
REMARK  218  A    between atoms: _525  and  _526
REMARK  219  A    between atoms: _529  and  _531
REMARK  220  A    between atoms: _531  and  _532
REMARK  221  A    between atoms: _531  and  _534
REMARK  222  A    between atoms: _534  and  _535
REMARK  223  A    between atoms: _540  and  _541
REMARK  224  A    between atoms: _543  and  _545
REMARK  225  A    between atoms: _545  and  _546
REMARK  226  A    between atoms: _545  and  _548
REMARK  227  A    between atoms: _548  and  _549
REMARK  228  A    between atoms: _552  and  _554
REMARK  229  A    between atoms: _554  and  _555
REMARK  230  A    between atoms: _554  and  _557
REMARK  231  A    between atoms: _559  and  _561
REMARK  232  A    between atoms: _561  and  _562
REMARK  233  A    between atoms: _561  and  _564
REMARK  234  A    between atoms: _564  and  _565
REMARK  235  A    between atoms: _568  and  _570
REMARK  236  A    between atoms: _570  and  _571
REMARK  237  A    between atoms: _570  and  _573
REMARK  238  A    between atoms: _573  and  _574
REMARK  239  A    between atoms: _579  and  _580
REMARK  240  A    between atoms: _582  and  _584
REMARK  241  A    between atoms: _584  and  _585
REMARK  242  A    between atoms: _584  and  _587
REMARK  243  A    between atoms: _587  and  _588
REMARK  244  A    between atoms: _591  and  _593
REMARK  245  A    between atoms: _593  and  _594
REMARK  246  A    between atoms: _593  and  _596
REMARK  247  A    between atoms: _596  and  _597
REMARK  248  A    between atoms: _607  and  _609
REMARK  249  A    between atoms: _609  and  _610
REMARK  250  A    between atoms: _613  and  _615
REMARK  251  A    between atoms: _615  and  _616
REMARK  252  A    between atoms: _619  and  _621
REMARK  253  A    between atoms: _621  and  _622
REMARK  254  A    between atoms: _621  and  _624
REMARK  255  A    between atoms: _624  and  _625
REMARK  256  A    between atoms: _628  and  _630
REMARK  257  A    between atoms: _630  and  _631
REMARK  258  A    between atoms: _630  and  _633
REMARK  259  A    between atoms: _633  and  _634
REMARK  260  A    between atoms: _637  and  _639
REMARK  261  A    between atoms: _639  and  _640
REMARK  262  A    between atoms: _639  and  _642
REMARK  263  A    between atoms: _642  and  _643
REMARK  264  A    between atoms: _646  and  _648
REMARK  265  A    between atoms: _648  and  _649
REMARK  266  A    between atoms: _648  and  _651
REMARK  267  A    between atoms: _651  and  _652
REMARK  268  A    between atoms: _652  and  _653
REMARK  269  A    between atoms: _653  and  _654
REMARK  270  A    between atoms: _654  and  _655
REMARK  271  A    between atoms: _659  and  _661
REMARK  272  A    between atoms: _661  and  _662
REMARK  273  A    between atoms: _661  and  _664
REMARK  274  A    between atoms: _664  and  _665
REMARK  275  A    between atoms: _670  and  _672
REMARK  276  A    between atoms: _672  and  _673
REMARK  277  A    between atoms: _672  and  _675
REMARK  278  A    between atoms: _675  and  _676
REMARK  279  A    between atoms: _676  and  _677
REMARK  280  A    between atoms: _677  and  _678
REMARK  281  A    between atoms: _678  and  _679
REMARK  282  A    between atoms: _683  and  _685
REMARK  283  A    between atoms: _685  and  _686
REMARK  284  A    between atoms: _685  and  _688
REMARK  285  A    between atoms: _688  and  _689
REMARK  286  A    between atoms: _699  and  _701
REMARK  287  A    between atoms: _701  and  _702
REMARK  288  A    between atoms: _701  and  _704
REMARK  289  A    between atoms: _704  and  _705
REMARK  290  A    between atoms: _705  and  _706
REMARK  291  A    between atoms: _711  and  _713
REMARK  292  A    between atoms: _713  and  _714
REMARK  293  A    between atoms: _717  and  _719
REMARK  294  A    between atoms: _719  and  _720
REMARK  295  A    between atoms: _722  and  _724
REMARK  296  A    between atoms: _724  and  _725
REMARK  297  A    between atoms: _724  and  _727
REMARK  298  A    between atoms: _727  and  _728
REMARK  299  A    between atoms: _728  and  _729
REMARK  300  A    between atoms: _732  and  _734
REMARK  301  A    between atoms: _734  and  _735
REMARK  302  A    between atoms: _738  and  _740
REMARK  303  A    between atoms: _740  and  _741
REMARK  304  A    between atoms: _740  and  _743
REMARK  305  A    between atoms: _743  and  _744
REMARK  306  A    between atoms: _744  and  _745
REMARK  307  A    between atoms: _745  and  _746
REMARK  308  A    between atoms: _755  and  _757
REMARK  309  A    between atoms: _757  and  _758
REMARK  310  A    between atoms: _757  and  _760
REMARK  311  A    between atoms: _760  and  _761
REMARK  312  A    between atoms: _764  and  _766
REMARK  313  A    between atoms: _766  and  _767
REMARK  314  A    between atoms: _766  and  _769
REMARK  315  A    between atoms: _769  and  _770
REMARK  316  A    between atoms: _775  and  _776
REMARK  317  A    between atoms: _778  and  _780
REMARK  318  A    between atoms: _780  and  _781
REMARK  319  A    between atoms: _780  and  _783
REMARK  320  A    between atoms: _783  and  _784
REMARK  321  A    between atoms: _787  and  _789
REMARK  322  A    between atoms: _789  and  _790
REMARK  323  A    between atoms: _789  and  _792
REMARK  324  A    between atoms: _792  and  _793
REMARK  325  A    between atoms: _796  and  _798
REMARK  326  A    between atoms: _798  and  _799
REMARK  327  A    between atoms: _798  and  _801
REMARK  328  A    between atoms: _801  and  _802
REMARK  329  A    between atoms: _803  and  _805
REMARK  330  A    between atoms: _805  and  _806
REMARK  331  A    between atoms: _805  and  _808
REMARK  332  A    between atoms: _811  and  _813
REMARK  333  A    between atoms: _813  and  _814
REMARK  334  A    between atoms: _813  and  _816
REMARK  335  A    between atoms: _816  and  _817
REMARK  336  A    between atoms: _817  and  _818
REMARK  337  A    between atoms: _821  and  _823
REMARK  338  A    between atoms: _823  and  _824
REMARK  339  A    between atoms: _823  and  _826
REMARK  340  A    between atoms: _826  and  _827
REMARK  341  A    between atoms: _837  and  _839
REMARK  342  A    between atoms: _839  and  _840
REMARK  343  A    between atoms: _839  and  _842
REMARK  344  A    between atoms: _842  and  _843
REMARK  345  A    between atoms: _846  and  _848
REMARK  346  A    between atoms: _848  and  _849
REMARK  347  A    between atoms: _848  and  _851
REMARK  348  A    between atoms: _851  and  _852
REMARK  349  A    between atoms: _852  and  _853
REMARK  350  A    between atoms: _853  and  _854
REMARK  351  A    between atoms: _863  and  _865
REMARK  352  A    between atoms: _865  and  _866
REMARK  353  A    between atoms: _865  and  _868
REMARK  354  A    between atoms: _868  and  _869
REMARK  355  A    between atoms: _874  and  _875
REMARK                            x       y       z     vdW  Elec       q    Type
REMARK                         _______ _______ _______ _____ _____    ______ ____
ROOT
ATOM      1  O   HOH     1      57.832  34.338 -13.862  0.00  0.00    +0.000 OA
ENDROOT
TORSDOF 0
REMARK  Name = ../refined-set-2016/4pge/4pge_pocket.pdb
REMARK  355 active torsions:
REMARK  status: ('A' for Active; 'I' for Inactive)
REMARK    1  A    between atoms: _1  and  _3
REMARK    2  A    between atoms: _3  and  _4
REMARK    3  A    between atoms: _3  and  _6
REMARK    4  A    between atoms: _6  and  _7
REMARK    5  A    between atoms: _10  and  _12
REMARK    6  A    between atoms: _12  and  _13
REMARK    7  A    between atoms: _12  and  _15
REMARK    8  A    between atoms: _15  and  _16
REMARK    9  A    between atoms: _16  and  _17
REMARK   10  A    between atoms: _17  and  _18
REMARK   11  A    between atoms: _27  and  _29
REMARK   12  A    between atoms: _29  and  _30
REMARK   13  A    between atoms: _29  and  _32
REMARK   14  A    between atoms: _32  and  _33
REMARK   15  A    between atoms: _38  and  _39
REMARK   16  A    between atoms: _41  and  _43
REMARK   17  A    between atoms: _43  and  _44
REMARK   18  A    between atoms: _43  and  _46
REMARK   19  A    between atoms: _46  and  _47
REMARK   20  A    between atoms: _53  and  _55
REMARK   21  A    between atoms: _55  and  _56
REMARK   22  A    between atoms: _55  and  _58
REMARK   23  A    between atoms: _61  and  _63
REMARK   24  A    between atoms: _63  and  _64
REMARK   25  A    between atoms: _63  and  _66
REMARK   26  A    between atoms: _66  and  _67
REMARK   27  A    between atoms: _70  and  _72
REMARK   28  A    between atoms: _72  and  _73
REMARK   29  A    between atoms: _76  and  _78
REMARK   30  A    between atoms: _78  and  _79
REMARK   31  A    between atoms: _78  and  _81
REMARK   32  A    between atoms: _81  and  _82
REMARK   33  A    between atoms: _87  and  _88
REMARK   34  A    between atoms: _90  and  _92
REMARK   35  A    between atoms: _92  and  _93
REMARK   36  A    between atoms: _92  and  _95
REMARK   37  A    between atoms: _95  and  _96
REMARK   38  A    between atoms: _96  and  _97
REMARK   39  A    between atoms: _99  and  _101
REMARK   40  A    between atoms: _101  and  _102
REMARK   41  A    between atoms: _101  and  _104
REMARK   42  A    between atoms: _104  and  _105
REMARK   43  A    between atoms: _105  and  _106
REMARK   44  A    between atoms: _109  and  _111
REMARK   45  A    between atoms: _111  and  _112
REMARK   46  A    between atoms: _111  and  _114
REMARK   47  A    between atoms: _117  and  _119
REMARK   48  A    between atoms: _119  and  _120
REMARK   49  A    between atoms: _122  and  _124
REMARK   50  A    between atoms: _124  and  _125
REMARK   51  A    between atoms: _124  and  _127
REMARK   52  A    between atoms: _130  and  _132
REMARK   53  A    between atoms: _132  and  _133
REMARK   54  A    between atoms: _132  and  _135
REMARK   55  A    between atoms: _135  and  _136
REMARK   56  A    between atoms: _142  and  _144
REMARK   57  A    between atoms: _144  and  _145
REMARK   58  A    between atoms: _144  and  _147
REMARK   59  A    between atoms: _150  and  _152
REMARK   60  A    between atoms: _152  and  _153
REMARK   61  A    between atoms: _152  and  _155
REMARK   62  A    between atoms: _155  and  _156
REMARK   63  A    between atoms: _161  and  _162
REMARK   64  A    between atoms: _164  and  _166
REMARK   65  A    between atoms: _166  and  _167
REMARK   66  A    between atoms: _166  and  _169
REMARK   67  A    between atoms: _169  and  _170
REMARK   68  A    between atoms: _170  and  _171
REMARK   69  A    between atoms: _173  and  _175
REMARK   70  A    between atoms: _175  and  _176
REMARK   71  A    between atoms: _175  and  _178
REMARK   72  A    between atoms: _178  and  _179
REMARK   73  A    between atoms: _179  and  _180
REMARK   74  A    between atoms: _183  and  _185
REMARK   75  A    between atoms: _185  and  _186
REMARK   76  A    between atoms: _185  and  _188
REMARK   77  A    between atoms: _188  and  _189
REMARK   78  A    between atoms: _189  and  _190
REMARK   79  A    between atoms: _193  and  _195
REMARK   80  A    between atoms: _195  and  _196
REMARK   81  A    between atoms: _195  and  _198
REMARK   82  A    between atoms: _198  and  _199
REMARK   83  A    between atoms: _204  and  _205
REMARK   84  A    between atoms: _207  and  _209
REMARK   85  A    between atoms: _209  and  _210
REMARK   86  A    between atoms: _209  and  _212
REMARK   87  A    between atoms: _212  and  _213
REMARK   88  A    between atoms: _213  and  _214
REMARK   89  A    between atoms: _214  and  _215
REMARK   90  A    between atoms: _224  and  _226
REMARK   91  A    between atoms: _226  and  _227
REMARK   92  A    between atoms: _226  and  _229
REMARK   93  A    between atoms: _229  and  _230
REMARK   94  A    between atoms: _230  and  _231
REMARK   95  A    between atoms: _234  and  _236
REMARK   96  A    between atoms: _236  and  _237
REMARK   97  A    between atoms: _236  and  _239
REMARK   98  A    between atoms: _239  and  _240
REMARK   99  A    between atoms: _243  and  _245
REMARK  100  A    between atoms: _245  and  _246
REMARK  101  A    between atoms: _245  and  _248
REMARK  102  A    between atoms: _248  and  _249
REMARK  103  A    between atoms: _249  and  _250
REMARK  104  A    between atoms: _255  and  _257
REMARK  105  A    between atoms: _257  and  _258
REMARK  106  A    between atoms: _257  and  _260
REMARK  107  A    between atoms: _260  and  _261
REMARK  108  A    between atoms: _261  and  _262
REMARK  109  A    between atoms: _262  and  _263
REMARK  110  A    between atoms: _263  and  _264
REMARK  111  A    between atoms: _268  and  _270
REMARK  112  A    between atoms: _270  and  _271
REMARK  113  A    between atoms: _274  and  _276
REMARK  114  A    between atoms: _276  and  _277
REMARK  115  A    between atoms: _279  and  _281
REMARK  116  A    between atoms: _281  and  _282
REMARK  117  A    between atoms: _281  and  _284
REMARK  118  A    between atoms: _284  and  _285
REMARK  119  A    between atoms: _290  and  _292
REMARK  120  A    between atoms: _292  and  _293
REMARK  121  A    between atoms: _292  and  _295
REMARK  122  A    between atoms: _295  and  _296
REMARK  123  A    between atoms: _296  and  _297
REMARK  124  A    between atoms: _300  and  _302
REMARK  125  A    between atoms: _302  and  _303
REMARK  126  A    between atoms: _302  and  _305
REMARK  127  A    between atoms: _305  and  _306
REMARK  128  A    between atoms: _306  and  _307
REMARK  129  A    between atoms: _312  and  _314
REMARK  130  A    between atoms: _314  and  _315
REMARK  131  A    between atoms: _314  and  _317
REMARK  132  A    between atoms: _317  and  _318
REMARK  133  A    between atoms: _320  and  _322
REMARK  134  A    between atoms: _322  and  _323
REMARK  135  A    between atoms: _322  and  _325
REMARK  136  A    between atoms: _325  and  _326
REMARK  137  A    between atoms: _332  and  _334
REMARK  138  A    between atoms: _334  and  _335
REMARK  139  A    between atoms: _334  and  _337
REMARK  140  A    between atoms: _340  and  _342
REMARK  141  A    between atoms: _342  and  _343
REMARK  142  A    between atoms: _342  and  _345
REMARK  143  A    between atoms: _345  and  _346
REMARK  144  A    between atoms: _349  and  _351
REMARK  145  A    between atoms: _351  and  _352
REMARK  146  A    between atoms: _351  and  _354
REMARK  147  A    between atoms: _354  and  _355
REMARK  148  A    between atoms: _358  and  _360
REMARK  149  A    between atoms: _360  and  _361
REMARK  150  A    between atoms: _360  and  _363
REMARK  151  A    between atoms: _363  and  _364
REMARK  152  A    between atoms: _367  and  _369
REMARK  153  A    between atoms: _369  and  _370
REMARK  154  A    between atoms: _369  and  _372
REMARK  155  A    between atoms: _372  and  _373
REMARK  156  A    between atoms: _376  and  _378
REMARK  157  A    between atoms: _378  and  _379
REMARK  158  A    between atoms: _378  and  _381
REMARK  159  A    between atoms: _381  and  _382
REMARK  160  A    between atoms: _387  and  _388
REMARK  161  A    between atoms: _390  and  _392
REMARK  162  A    between atoms: _392  and  _393
REMARK  163  A    between atoms: _392  and  _395
REMARK  164  A    between atoms: _395  and  _396
REMARK  165  A    between atoms: _401  and  _402
REMARK  166  A    between atoms: _404  and  _406
REMARK  167  A    between atoms: _406  and  _407
REMARK  168  A    between atoms: _406  and  _409
REMARK  169  A    between atoms: _409  and  _410
REMARK  170  A    between atoms: _413  and  _415
REMARK  171  A    between atoms: _415  and  _416
REMARK  172  A    between atoms: _415  and  _418
REMARK  173  A    between atoms: _418  and  _419
REMARK  174  A    between atoms: _422  and  _424
REMARK  175  A    between atoms: _424  and  _425
REMARK  176  A    between atoms: _424  and  _427
REMARK  177  A    between atoms: _427  and  _428
REMARK  178  A    between atoms: _428  and  _429
REMARK  179  A    between atoms: _434  and  _436
REMARK  180  A    between atoms: _436  and  _437
REMARK  181  A    between atoms: _436  and  _439
REMARK  182  A    between atoms: _442  and  _444
REMARK  183  A    between atoms: _444  and  _445
REMARK  184  A    between atoms: _444  and  _447
REMARK  185  A    between atoms: _447  and  _448
REMARK  186  A    between atoms: _451  and  _453
REMARK  187  A    between atoms: _453  and  _454
REMARK  188  A    between atoms: _453  and  _456
REMARK  189  A    between atoms: _456  and  _457
REMARK  190  A    between atoms: _459  and  _461
REMARK  191  A    between atoms: _461  and  _462
REMARK  192  A    between atoms: _464  and  _466
REMARK  193  A    between atoms: _466  and  _467
REMARK  194  A    between atoms: _466  and  _469
REMARK  195  A    between atoms: _469  and  _470
REMARK  196  A    between atoms: _470  and  _802
REMARK  197  A    between atoms: _471  and  _473
REMARK  198  A    between atoms: _473  and  _474
REMARK  199  A    between atoms: _473  and  _476
REMARK  200  A    between atoms: _476  and  _477
REMARK  201  A    between atoms: _482  and  _483
REMARK  202  A    between atoms: _485  and  _487
REMARK  203  A    between atoms: _487  and  _488
REMARK  204  A    between atoms: _487  and  _490
REMARK  205  A    between atoms: _490  and  _491
REMARK  206  A    between atoms: _491  and  _492
REMARK  207  A    between atoms: _497  and  _499
REMARK  208  A    between atoms: _499  and  _500
REMARK  209  A    between atoms: _499  and  _502
REMARK  210  A    between atoms: _502  and  _503
REMARK  211  A    between atoms: _503  and  _504
REMARK  212  A    between atoms: _509  and  _511
REMARK  213  A    between atoms: _511  and  _512
REMARK  214  A    between atoms: _511  and  _514
REMARK  215  A    between atoms: _514  and  _515
REMARK  216  A    between atoms: _520  and  _521
REMARK  217  A    between atoms: _523  and  _525
REMARK  218  A    between atoms: _525  and  _526
REMARK  219  A    between atoms: _529  and  _531
REMARK  220  A    between atoms: _531  and  _532
REMARK  221  A    between atoms: _531  and  _534
REMARK  222  A    between atoms: _534  and  _535
REMARK  223  A    between atoms: _540  and  _541
REMARK  224  A    between atoms: _543  and  _545
REMARK  225  A    between atoms: _545  and  _546
REMARK  226  A    between atoms: _545  and  _548
REMARK  227  A    between atoms: _548  and  _549
REMARK  228  A    between atoms: _552  and  _554
REMARK  229  A    between atoms: _554  and  _555
REMARK  230  A    between atoms: _554  and  _557
REMARK  231  A    between atoms: _559  and  _561
REMARK  232  A    between atoms: _561  and  _562
REMARK  233  A    between atoms: _561  and  _564
REMARK  234  A    between atoms: _564  and  _565
REMARK  235  A    between atoms: _568  and  _570
REMARK  236  A    between atoms: _570  and  _571
REMARK  237  A    between atoms: _570  and  _573
REMARK  238  A    between atoms: _573  and  _574
REMARK  239  A    between atoms: _579  and  _580
REMARK  240  A    between atoms: _582  and  _584
REMARK  241  A    between atoms: _584  and  _585
REMARK  242  A    between atoms: _584  and  _587
REMARK  243  A    between atoms: _587  and  _588
REMARK  244  A    between atoms: _591  and  _593
REMARK  245  A    between atoms: _593  and  _594
REMARK  246  A    between atoms: _593  and  _596
REMARK  247  A    between atoms: _596  and  _597
REMARK  248  A    between atoms: _607  and  _609
REMARK  249  A    between atoms: _609  and  _610
REMARK  250  A    between atoms: _613  and  _615
REMARK  251  A    between atoms: _615  and  _616
REMARK  252  A    between atoms: _619  and  _621
REMARK  253  A    between atoms: _621  and  _622
REMARK  254  A    between atoms: _621  and  _624
REMARK  255  A    between atoms: _624  and  _625
REMARK  256  A    between atoms: _628  and  _630
REMARK  257  A    between atoms: _630  and  _631
REMARK  258  A    between atoms: _630  and  _633
REMARK  259  A    between atoms: _633  and  _634
REMARK  260  A    between atoms: _637  and  _639
REMARK  261  A    between atoms: _639  and  _640
REMARK  262  A    between atoms: _639  and  _642
REMARK  263  A    between atoms: _642  and  _643
REMARK  264  A    between atoms: _646  and  _648
REMARK  265  A    between atoms: _648  and  _649
REMARK  266  A    between atoms: _648  and  _651
REMARK  267  A    between atoms: _651  and  _652
REMARK  268  A    between atoms: _652  and  _653
REMARK  269  A    between atoms: _653  and  _654
REMARK  270  A    between atoms: _654  and  _655
REMARK  271  A    between atoms: _659  and  _661
REMARK  272  A    between atoms: _661  and  _662
REMARK  273  A    between atoms: _661  and  _664
REMARK  274  A    between atoms: _664  and  _665
REMARK  275  A    between atoms: _670  and  _672
REMARK  276  A    between atoms: _672  and  _673
REMARK  277  A    between atoms: _672  and  _675
REMARK  278  A    between atoms: _675  and  _676
REMARK  279  A    between atoms: _676  and  _677
REMARK  280  A    between atoms: _677  and  _678
REMARK  281  A    between atoms: _678  and  _679
REMARK  282  A    between atoms: _683  and  _685
REMARK  283  A    between atoms: _685  and  _686
REMARK  284  A    between atoms: _685  and  _688
REMARK  285  A    between atoms: _688  and  _689
REMARK  286  A    between atoms: _699  and  _701
REMARK  287  A    between atoms: _701  and  _702
REMARK  288  A    between atoms: _701  and  _704
REMARK  289  A    between atoms: _704  and  _705
REMARK  290  A    between atoms: _705  and  _706
REMARK  291  A    between atoms: _711  and  _713
REMARK  292  A    between atoms: _713  and  _714
REMARK  293  A    between atoms: _717  and  _719
REMARK  294  A    between atoms: _719  and  _720
REMARK  295  A    between atoms: _722  and  _724
REMARK  296  A    between atoms: _724  and  _725
REMARK  297  A    between atoms: _724  and  _727
REMARK  298  A    between atoms: _727  and  _728
REMARK  299  A    between atoms: _728  and  _729
REMARK  300  A    between atoms: _732  and  _734
REMARK  301  A    between atoms: _734  and  _735
REMARK  302  A    between atoms: _738  and  _740
REMARK  303  A    between atoms: _740  and  _741
REMARK  304  A    between atoms: _740  and  _743
REMARK  305  A    between atoms: _743  and  _744
REMARK  306  A    between atoms: _744  and  _745
REMARK  307  A    between atoms: _745  and  _746
REMARK  308  A    between atoms: _755  and  _757
REMARK  309  A    between atoms: _757  and  _758
REMARK  310  A    between atoms: _757  and  _760
REMARK  311  A    between atoms: _760  and  _761
REMARK  312  A    between atoms: _764  and  _766
REMARK  313  A    between atoms: _766  and  _767
REMARK  314  A    between atoms: _766  and  _769
REMARK  315  A    between atoms: _769  and  _770
REMARK  316  A    between atoms: _775  and  _776
REMARK  317  A    between atoms: _778  and  _780
REMARK  318  A    between atoms: _780  and  _781
REMARK  319  A    between atoms: _780  and  _783
REMARK  320  A    between atoms: _783  and  _784
REMARK  321  A    between atoms: _787  and  _789
REMARK  322  A    between atoms: _789  and  _790
REMARK  323  A    between atoms: _789  and  _792
REMARK  324  A    between atoms: _792  and  _793
REMARK  325  A    between atoms: _796  and  _798
REMARK  326  A    between atoms: _798  and  _799
REMARK  327  A    between atoms: _798  and  _801
REMARK  328  A    between atoms: _801  and  _802
REMARK  329  A    between atoms: _803  and  _805
REMARK  330  A    between atoms: _805  and  _806
REMARK  331  A    between atoms: _805  and  _808
REMARK  332  A    between atoms: _811  and  _813
REMARK  333  A    between atoms: _813  and  _814
REMARK  334  A    between atoms: _813  and  _816
REMARK  335  A    between atoms: _816  and  _817
REMARK  336  A    between atoms: _817  and  _818
REMARK  337  A    between atoms: _821  and  _823
REMARK  338  A    between atoms: _823  and  _824
REMARK  339  A    between atoms: _823  and  _826
REMARK  340  A    between atoms: _826  and  _827
REMARK  341  A    between atoms: _837  and  _839
REMARK  342  A    between atoms: _839  and  _840
REMARK  343  A    between atoms: _839  and  _842
REMARK  344  A    between atoms: _842  and  _843
REMARK  345  A    between atoms: _846  and  _848
REMARK  346  A    between atoms: _848  and  _849
REMARK  347  A    between atoms: _848  and  _851
REMARK  348  A    between atoms: _851  and  _852
REMARK  349  A    between atoms: _852  and  _853
REMARK  350  A    between atoms: _853  and  _854
REMARK  351  A    between atoms: _863  and  _865
REMARK  352  A    between atoms: _865  and  _866
REMARK  353  A    between atoms: _865  and  _868
REMARK  354  A    between atoms: _868  and  _869
REMARK  355  A    between atoms: _874  and  _875
REMARK                            x       y       z     vdW  Elec       q    Type
REMARK                         _______ _______ _______ _____ _____    ______ ____
ROOT
ATOM      1  O   HOH     1      44.247  29.887 -10.552  0.00  0.00    +0.000 OA
ENDROOT
TORSDOF 0
REMARK  Name = ../refined-set-2016/4pge/4pge_pocket.pdb
REMARK  355 active torsions:
REMARK  status: ('A' for Active; 'I' for Inactive)
REMARK    1  A    between atoms: _1  and  _3
REMARK    2  A    between atoms: _3  and  _4
REMARK    3  A    between atoms: _3  and  _6
REMARK    4  A    between atoms: _6  and  _7
REMARK    5  A    between atoms: _10  and  _12
REMARK    6  A    between atoms: _12  and  _13
REMARK    7  A    between atoms: _12  and  _15
REMARK    8  A    between atoms: _15  and  _16
REMARK    9  A    between atoms: _16  and  _17
REMARK   10  A    between atoms: _17  and  _18
REMARK   11  A    between atoms: _27  and  _29
REMARK   12  A    between atoms: _29  and  _30
REMARK   13  A    between atoms: _29  and  _32
REMARK   14  A    between atoms: _32  and  _33
REMARK   15  A    between atoms: _38  and  _39
REMARK   16  A    between atoms: _41  and  _43
REMARK   17  A    between atoms: _43  and  _44
REMARK   18  A    between atoms: _43  and  _46
REMARK   19  A    between atoms: _46  and  _47
REMARK   20  A    between atoms: _53  and  _55
REMARK   21  A    between atoms: _55  and  _56
REMARK   22  A    between atoms: _55  and  _58
REMARK   23  A    between atoms: _61  and  _63
REMARK   24  A    between atoms: _63  and  _64
REMARK   25  A    between atoms: _63  and  _66
REMARK   26  A    between atoms: _66  and  _67
REMARK   27  A    between atoms: _70  and  _72
REMARK   28  A    between atoms: _72  and  _73
REMARK   29  A    between atoms: _76  and  _78
REMARK   30  A    between atoms: _78  and  _79
REMARK   31  A    between atoms: _78  and  _81
REMARK   32  A    between atoms: _81  and  _82
REMARK   33  A    between atoms: _87  and  _88
REMARK   34  A    between atoms: _90  and  _92
REMARK   35  A    between atoms: _92  and  _93
REMARK   36  A    between atoms: _92  and  _95
REMARK   37  A    between atoms: _95  and  _96
REMARK   38  A    between atoms: _96  and  _97
REMARK   39  A    between atoms: _99  and  _101
REMARK   40  A    between atoms: _101  and  _102
REMARK   41  A    between atoms: _101  and  _104
REMARK   42  A    between atoms: _104  and  _105
REMARK   43  A    between atoms: _105  and  _106
REMARK   44  A    between atoms: _109  and  _111
REMARK   45  A    between atoms: _111  and  _112
REMARK   46  A    between atoms: _111  and  _114
REMARK   47  A    between atoms: _117  and  _119
REMARK   48  A    between atoms: _119  and  _120
REMARK   49  A    between atoms: _122  and  _124
REMARK   50  A    between atoms: _124  and  _125
REMARK   51  A    between atoms: _124  and  _127
REMARK   52  A    between atoms: _130  and  _132
REMARK   53  A    between atoms: _132  and  _133
REMARK   54  A    between atoms: _132  and  _135
REMARK   55  A    between atoms: _135  and  _136
REMARK   56  A    between atoms: _142  and  _144
REMARK   57  A    between atoms: _144  and  _145
REMARK   58  A    between atoms: _144  and  _147
REMARK   59  A    between atoms: _150  and  _152
REMARK   60  A    between atoms: _152  and  _153
REMARK   61  A    between atoms: _152  and  _155
REMARK   62  A    between atoms: _155  and  _156
REMARK   63  A    between atoms: _161  and  _162
REMARK   64  A    between atoms: _164  and  _166
REMARK   65  A    between atoms: _166  and  _167
REMARK   66  A    between atoms: _166  and  _169
REMARK   67  A    between atoms: _169  and  _170
REMARK   68  A    between atoms: _170  and  _171
REMARK   69  A    between atoms: _173  and  _175
REMARK   70  A    between atoms: _175  and  _176
REMARK   71  A    between atoms: _175  and  _178
REMARK   72  A    between atoms: _178  and  _179
REMARK   73  A    between atoms: _179  and  _180
REMARK   74  A    between atoms: _183  and  _185
REMARK   75  A    between atoms: _185  and  _186
REMARK   76  A    between atoms: _185  and  _188
REMARK   77  A    between atoms: _188  and  _189
REMARK   78  A    between atoms: _189  and  _190
REMARK   79  A    between atoms: _193  and  _195
REMARK   80  A    between atoms: _195  and  _196
REMARK   81  A    between atoms: _195  and  _198
REMARK   82  A    between atoms: _198  and  _199
REMARK   83  A    between atoms: _204  and  _205
REMARK   84  A    between atoms: _207  and  _209
REMARK   85  A    between atoms: _209  and  _210
REMARK   86  A    between atoms: _209  and  _212
REMARK   87  A    between atoms: _212  and  _213
REMARK   88  A    between atoms: _213  and  _214
REMARK   89  A    between atoms: _214  and  _215
REMARK   90  A    between atoms: _224  and  _226
REMARK   91  A    between atoms: _226  and  _227
REMARK   92  A    between atoms: _226  and  _229
REMARK   93  A    between atoms: _229  and  _230
REMARK   94  A    between atoms: _230  and  _231
REMARK   95  A    between atoms: _234  and  _236
REMARK   96  A    between atoms: _236  and  _237
REMARK   97  A    between atoms: _236  and  _239
REMARK   98  A    between atoms: _239  and  _240
REMARK   99  A    between atoms: _243  and  _245
REMARK  100  A    between atoms: _245  and  _246
REMARK  101  A    between atoms: _245  and  _248
REMARK  102  A    between atoms: _248  and  _249
REMARK  103  A    between atoms: _249  and  _250
REMARK  104  A    between atoms: _255  and  _257
REMARK  105  A    between atoms: _257  and  _258
REMARK  106  A    between atoms: _257  and  _260
REMARK  107  A    between atoms: _260  and  _261
REMARK  108  A    between atoms: _261  and  _262
REMARK  109  A    between atoms: _262  and  _263
REMARK  110  A    between atoms: _263  and  _264
REMARK  111  A    between atoms: _268  and  _270
REMARK  112  A    between atoms: _270  and  _271
REMARK  113  A    between atoms: _274  and  _276
REMARK  114  A    between atoms: _276  and  _277
REMARK  115  A    between atoms: _279  and  _281
REMARK  116  A    between atoms: _281  and  _282
REMARK  117  A    between atoms: _281  and  _284
REMARK  118  A    between atoms: _284  and  _285
REMARK  119  A    between atoms: _290  and  _292
REMARK  120  A    between atoms: _292  and  _293
REMARK  121  A    between atoms: _292  and  _295
REMARK  122  A    between atoms: _295  and  _296
REMARK  123  A    between atoms: _296  and  _297
REMARK  124  A    between atoms: _300  and  _302
REMARK  125  A    between atoms: _302  and  _303
REMARK  126  A    between atoms: _302  and  _305
REMARK  127  A    between atoms: _305  and  _306
REMARK  128  A    between atoms: _306  and  _307
REMARK  129  A    between atoms: _312  and  _314
REMARK  130  A    between atoms: _314  and  _315
REMARK  131  A    between atoms: _314  and  _317
REMARK  132  A    between atoms: _317  and  _318
REMARK  133  A    between atoms: _320  and  _322
REMARK  134  A    between atoms: _322  and  _323
REMARK  135  A    between atoms: _322  and  _325
REMARK  136  A    between atoms: _325  and  _326
REMARK  137  A    between atoms: _332  and  _334
REMARK  138  A    between atoms: _334  and  _335
REMARK  139  A    between atoms: _334  and  _337
REMARK  140  A    between atoms: _340  and  _342
REMARK  141  A    between atoms: _342  and  _343
REMARK  142  A    between atoms: _342  and  _345
REMARK  143  A    between atoms: _345  and  _346
REMARK  144  A    between atoms: _349  and  _351
REMARK  145  A    between atoms: _351  and  _352
REMARK  146  A    between atoms: _351  and  _354
REMARK  147  A    between atoms: _354  and  _355
REMARK  148  A    between atoms: _358  and  _360
REMARK  149  A    between atoms: _360  and  _361
REMARK  150  A    between atoms: _360  and  _363
REMARK  151  A    between atoms: _363  and  _364
REMARK  152  A    between atoms: _367  and  _369
REMARK  153  A    between atoms: _369  and  _370
REMARK  154  A    between atoms: _369  and  _372
REMARK  155  A    between atoms: _372  and  _373
REMARK  156  A    between atoms: _376  and  _378
REMARK  157  A    between atoms: _378  and  _379
REMARK  158  A    between atoms: _378  and  _381
REMARK  159  A    between atoms: _381  and  _382
REMARK  160  A    between atoms: _387  and  _388
REMARK  161  A    between atoms: _390  and  _392
REMARK  162  A    between atoms: _392  and  _393
REMARK  163  A    between atoms: _392  and  _395
REMARK  164  A    between atoms: _395  and  _396
REMARK  165  A    between atoms: _401  and  _402
REMARK  166  A    between atoms: _404  and  _406
REMARK  167  A    between atoms: _406  and  _407
REMARK  168  A    between atoms: _406  and  _409
REMARK  169  A    between atoms: _409  and  _410
REMARK  170  A    between atoms: _413  and  _415
REMARK  171  A    between atoms: _415  and  _416
REMARK  172  A    between atoms: _415  and  _418
REMARK  173  A    between atoms: _418  and  _419
REMARK  174  A    between atoms: _422  and  _424
REMARK  175  A    between atoms: _424  and  _425
REMARK  176  A    between atoms: _424  and  _427
REMARK  177  A    between atoms: _427  and  _428
REMARK  178  A    between atoms: _428  and  _429
REMARK  179  A    between atoms: _434  and  _436
REMARK  180  A    between atoms: _436  and  _437
REMARK  181  A    between atoms: _436  and  _439
REMARK  182  A    between atoms: _442  and  _444
REMARK  183  A    between atoms: _444  and  _445
REMARK  184  A    between atoms: _444  and  _447
REMARK  185  A    between atoms: _447  and  _448
REMARK  186  A    between atoms: _451  and  _453
REMARK  187  A    between atoms: _453  and  _454
REMARK  188  A    between atoms: _453  and  _456
REMARK  189  A    between atoms: _456  and  _457
REMARK  190  A    between atoms: _459  and  _461
REMARK  191  A    between atoms: _461  and  _462
REMARK  192  A    between atoms: _464  and  _466
REMARK  193  A    between atoms: _466  and  _467
REMARK  194  A    between atoms: _466  and  _469
REMARK  195  A    between atoms: _469  and  _470
REMARK  196  A    between atoms: _470  and  _802
REMARK  197  A    between atoms: _471  and  _473
REMARK  198  A    between atoms: _473  and  _474
REMARK  199  A    between atoms: _473  and  _476
REMARK  200  A    between atoms: _476  and  _477
REMARK  201  A    between atoms: _482  and  _483
REMARK  202  A    between atoms: _485  and  _487
REMARK  203  A    between atoms: _487  and  _488
REMARK  204  A    between atoms: _487  and  _490
REMARK  205  A    between atoms: _490  and  _491
REMARK  206  A    between atoms: _491  and  _492
REMARK  207  A    between atoms: _497  and  _499
REMARK  208  A    between atoms: _499  and  _500
REMARK  209  A    between atoms: _499  and  _502
REMARK  210  A    between atoms: _502  and  _503
REMARK  211  A    between atoms: _503  and  _504
REMARK  212  A    between atoms: _509  and  _511
REMARK  213  A    between atoms: _511  and  _512
REMARK  214  A    between atoms: _511  and  _514
REMARK  215  A    between atoms: _514  and  _515
REMARK  216  A    between atoms: _520  and  _521
REMARK  217  A    between atoms: _523  and  _525
REMARK  218  A    between atoms: _525  and  _526
REMARK  219  A    between atoms: _529  and  _531
REMARK  220  A    between atoms: _531  and  _532
REMARK  221  A    between atoms: _531  and  _534
REMARK  222  A    between atoms: _534  and  _535
REMARK  223  A    between atoms: _540  and  _541
REMARK  224  A    between atoms: _543  and  _545
REMARK  225  A    between atoms: _545  and  _546
REMARK  226  A    between atoms: _545  and  _548
REMARK  227  A    between atoms: _548  and  _549
REMARK  228  A    between atoms: _552  and  _554
REMARK  229  A    between atoms: _554  and  _555
REMARK  230  A    between atoms: _554  and  _557
REMARK  231  A    between atoms: _559  and  _561
REMARK  232  A    between atoms: _561  and  _562
REMARK  233  A    between atoms: _561  and  _564
REMARK  234  A    between atoms: _564  and  _565
REMARK  235  A    between atoms: _568  and  _570
REMARK  236  A    between atoms: _570  and  _571
REMARK  237  A    between atoms: _570  and  _573
REMARK  238  A    between atoms: _573  and  _574
REMARK  239  A    between atoms: _579  and  _580
REMARK  240  A    between atoms: _582  and  _584
REMARK  241  A    between atoms: _584  and  _585
REMARK  242  A    between atoms: _584  and  _587
REMARK  243  A    between atoms: _587  and  _588
REMARK  244  A    between atoms: _591  and  _593
REMARK  245  A    between atoms: _593  and  _594
REMARK  246  A    between atoms: _593  and  _596
REMARK  247  A    between atoms: _596  and  _597
REMARK  248  A    between atoms: _607  and  _609
REMARK  249  A    between atoms: _609  and  _610
REMARK  250  A    between atoms: _613  and  _615
REMARK  251  A    between atoms: _615  and  _616
REMARK  252  A    between atoms: _619  and  _621
REMARK  253  A    between atoms: _621  and  _622
REMARK  254  A    between atoms: _621  and  _624
REMARK  255  A    between atoms: _624  and  _625
REMARK  256  A    between atoms: _628  and  _630
REMARK  257  A    between atoms: _630  and  _631
REMARK  258  A    between atoms: _630  and  _633
REMARK  259  A    between atoms: _633  and  _634
REMARK  260  A    between atoms: _637  and  _639
REMARK  261  A    between atoms: _639  and  _640
REMARK  262  A    between atoms: _639  and  _642
REMARK  263  A    between atoms: _642  and  _643
REMARK  264  A    between atoms: _646  and  _648
REMARK  265  A    between atoms: _648  and  _649
REMARK  266  A    between atoms: _648  and  _651
REMARK  267  A    between atoms: _651  and  _652
REMARK  268  A    between atoms: _652  and  _653
REMARK  269  A    between atoms: _653  and  _654
REMARK  270  A    between atoms: _654  and  _655
REMARK  271  A    between atoms: _659  and  _661
REMARK  272  A    between atoms: _661  and  _662
REMARK  273  A    between atoms: _661  and  _664
REMARK  274  A    between atoms: _664  and  _665
REMARK  275  A    between atoms: _670  and  _672
REMARK  276  A    between atoms: _672  and  _673
REMARK  277  A    between atoms: _672  and  _675
REMARK  278  A    between atoms: _675  and  _676
REMARK  279  A    between atoms: _676  and  _677
REMARK  280  A    between atoms: _677  and  _678
REMARK  281  A    between atoms: _678  and  _679
REMARK  282  A    between atoms: _683  and  _685
REMARK  283  A    between atoms: _685  and  _686
REMARK  284  A    between atoms: _685  and  _688
REMARK  285  A    between atoms: _688  and  _689
REMARK  286  A    between atoms: _699  and  _701
REMARK  287  A    between atoms: _701  and  _702
REMARK  288  A    between atoms: _701  and  _704
REMARK  289  A    between atoms: _704  and  _705
REMARK  290  A    between atoms: _705  and  _706
REMARK  291  A    between atoms: _711  and  _713
REMARK  292  A    between atoms: _713  and  _714
REMARK  293  A    between atoms: _717  and  _719
REMARK  294  A    between atoms: _719  and  _720
REMARK  295  A    between atoms: _722  and  _724
REMARK  296  A    between atoms: _724  and  _725
REMARK  297  A    between atoms: _724  and  _727
REMARK  298  A    between atoms: _727  and  _728
REMARK  299  A    between atoms: _728  and  _729
REMARK  300  A    between atoms: _732  and  _734
REMARK  301  A    between atoms: _734  and  _735
REMARK  302  A    between atoms: _738  and  _740
REMARK  303  A    between atoms: _740  and  _741
REMARK  304  A    between atoms: _740  and  _743
REMARK  305  A    between atoms: _743  and  _744
REMARK  306  A    between atoms: _744  and  _745
REMARK  307  A    between atoms: _745  and  _746
REMARK  308  A    between atoms: _755  and  _757
REMARK  309  A    between atoms: _757  and  _758
REMARK  310  A    between atoms: _757  and  _760
REMARK  311  A    between atoms: _760  and  _761
REMARK  312  A    between atoms: _764  and  _766
REMARK  313  A    between atoms: _766  and  _767
REMARK  314  A    between atoms: _766  and  _769
REMARK  315  A    between atoms: _769  and  _770
REMARK  316  A    between atoms: _775  and  _776
REMARK  317  A    between atoms: _778  and  _780
REMARK  318  A    between atoms: _780  and  _781
REMARK  319  A    between atoms: _780  and  _783
REMARK  320  A    between atoms: _783  and  _784
REMARK  321  A    between atoms: _787  and  _789
REMARK  322  A    between atoms: _789  and  _790
REMARK  323  A    between atoms: _789  and  _792
REMARK  324  A    between atoms: _792  and  _793
REMARK  325  A    between atoms: _796  and  _798
REMARK  326  A    between atoms: _798  and  _799
REMARK  327  A    between atoms: _798  and  _801
REMARK  328  A    between atoms: _801  and  _802
REMARK  329  A    between atoms: _803  and  _805
REMARK  330  A    between atoms: _805  and  _806
REMARK  331  A    between atoms: _805  and  _808
REMARK  332  A    between atoms: _811  and  _813
REMARK  333  A    between atoms: _813  and  _814
REMARK  334  A    between atoms: _813  and  _816
REMARK  335  A    between atoms: _816  and  _817
REMARK  336  A    between atoms: _817  and  _818
REMARK  337  A    between atoms: _821  and  _823
REMARK  338  A    between atoms: _823  and  _824
REMARK  339  A    between atoms: _823  and  _826
REMARK  340  A    between atoms: _826  and  _827
REMARK  341  A    between atoms: _837  and  _839
REMARK  342  A    between atoms: _839  and  _840
REMARK  343  A    between atoms: _839  and  _842
REMARK  344  A    between atoms: _842  and  _843
REMARK  345  A    between atoms: _846  and  _848
REMARK  346  A    between atoms: _848  and  _849
REMARK  347  A    between atoms: _848  and  _851
REMARK  348  A    between atoms: _851  and  _852
REMARK  349  A    between atoms: _852  and  _853
REMARK  350  A    between atoms: _853  and  _854
REMARK  351  A    between atoms: _863  and  _865
REMARK  352  A    between atoms: _865  and  _866
REMARK  353  A    between atoms: _865  and  _868
REMARK  354  A    between atoms: _868  and  _869
REMARK  355  A    between atoms: _874  and  _875
REMARK                            x       y       z     vdW  Elec       q    Type
REMARK                         _______ _______ _______ _____ _____    ______ ____
ROOT
ATOM      1  O   HOH     1      52.085  23.068  -3.943  0.00  0.00    +0.000 OA
ENDROOT
TORSDOF 0
REMARK  Name = ../refined-set-2016/4pge/4pge_pocket.pdb
REMARK  355 active torsions:
REMARK  status: ('A' for Active; 'I' for Inactive)
REMARK    1  A    between atoms: _1  and  _3
REMARK    2  A    between atoms: _3  and  _4
REMARK    3  A    between atoms: _3  and  _6
REMARK    4  A    between atoms: _6  and  _7
REMARK    5  A    between atoms: _10  and  _12
REMARK    6  A    between atoms: _12  and  _13
REMARK    7  A    between atoms: _12  and  _15
REMARK    8  A    between atoms: _15  and  _16
REMARK    9  A    between atoms: _16  and  _17
REMARK   10  A    between atoms: _17  and  _18
REMARK   11  A    between atoms: _27  and  _29
REMARK   12  A    between atoms: _29  and  _30
REMARK   13  A    between atoms: _29  and  _32
REMARK   14  A    between atoms: _32  and  _33
REMARK   15  A    between atoms: _38  and  _39
REMARK   16  A    between atoms: _41  and  _43
REMARK   17  A    between atoms: _43  and  _44
REMARK   18  A    between atoms: _43  and  _46
REMARK   19  A    between atoms: _46  and  _47
REMARK   20  A    between atoms: _53  and  _55
REMARK   21  A    between atoms: _55  and  _56
REMARK   22  A    between atoms: _55  and  _58
REMARK   23  A    between atoms: _61  and  _63
REMARK   24  A    between atoms: _63  and  _64
REMARK   25  A    between atoms: _63  and  _66
REMARK   26  A    between atoms: _66  and  _67
REMARK   27  A    between atoms: _70  and  _72
REMARK   28  A    between atoms: _72  and  _73
REMARK   29  A    between atoms: _76  and  _78
REMARK   30  A    between atoms: _78  and  _79
REMARK   31  A    between atoms: _78  and  _81
REMARK   32  A    between atoms: _81  and  _82
REMARK   33  A    between atoms: _87  and  _88
REMARK   34  A    between atoms: _90  and  _92
REMARK   35  A    between atoms: _92  and  _93
REMARK   36  A    between atoms: _92  and  _95
REMARK   37  A    between atoms: _95  and  _96
REMARK   38  A    between atoms: _96  and  _97
REMARK   39  A    between atoms: _99  and  _101
REMARK   40  A    between atoms: _101  and  _102
REMARK   41  A    between atoms: _101  and  _104
REMARK   42  A    between atoms: _104  and  _105
REMARK   43  A    between atoms: _105  and  _106
REMARK   44  A    between atoms: _109  and  _111
REMARK   45  A    between atoms: _111  and  _112
REMARK   46  A    between atoms: _111  and  _114
REMARK   47  A    between atoms: _117  and  _119
REMARK   48  A    between atoms: _119  and  _120
REMARK   49  A    between atoms: _122  and  _124
REMARK   50  A    between atoms: _124  and  _125
REMARK   51  A    between atoms: _124  and  _127
REMARK   52  A    between atoms: _130  and  _132
REMARK   53  A    between atoms: _132  and  _133
REMARK   54  A    between atoms: _132  and  _135
REMARK   55  A    between atoms: _135  and  _136
REMARK   56  A    between atoms: _142  and  _144
REMARK   57  A    between atoms: _144  and  _145
REMARK   58  A    between atoms: _144  and  _147
REMARK   59  A    between atoms: _150  and  _152
REMARK   60  A    between atoms: _152  and  _153
REMARK   61  A    between atoms: _152  and  _155
REMARK   62  A    between atoms: _155  and  _156
REMARK   63  A    between atoms: _161  and  _162
REMARK   64  A    between atoms: _164  and  _166
REMARK   65  A    between atoms: _166  and  _167
REMARK   66  A    between atoms: _166  and  _169
REMARK   67  A    between atoms: _169  and  _170
REMARK   68  A    between atoms: _170  and  _171
REMARK   69  A    between atoms: _173  and  _175
REMARK   70  A    between atoms: _175  and  _176
REMARK   71  A    between atoms: _175  and  _178
REMARK   72  A    between atoms: _178  and  _179
REMARK   73  A    between atoms: _179  and  _180
REMARK   74  A    between atoms: _183  and  _185
REMARK   75  A    between atoms: _185  and  _186
REMARK   76  A    between atoms: _185  and  _188
REMARK   77  A    between atoms: _188  and  _189
REMARK   78  A    between atoms: _189  and  _190
REMARK   79  A    between atoms: _193  and  _195
REMARK   80  A    between atoms: _195  and  _196
REMARK   81  A    between atoms: _195  and  _198
REMARK   82  A    between atoms: _198  and  _199
REMARK   83  A    between atoms: _204  and  _205
REMARK   84  A    between atoms: _207  and  _209
REMARK   85  A    between atoms: _209  and  _210
REMARK   86  A    between atoms: _209  and  _212
REMARK   87  A    between atoms: _212  and  _213
REMARK   88  A    between atoms: _213  and  _214
REMARK   89  A    between atoms: _214  and  _215
REMARK   90  A    between atoms: _224  and  _226
REMARK   91  A    between atoms: _226  and  _227
REMARK   92  A    between atoms: _226  and  _229
REMARK   93  A    between atoms: _229  and  _230
REMARK   94  A    between atoms: _230  and  _231
REMARK   95  A    between atoms: _234  and  _236
REMARK   96  A    between atoms: _236  and  _237
REMARK   97  A    between atoms: _236  and  _239
REMARK   98  A    between atoms: _239  and  _240
REMARK   99  A    between atoms: _243  and  _245
REMARK  100  A    between atoms: _245  and  _246
REMARK  101  A    between atoms: _245  and  _248
REMARK  102  A    between atoms: _248  and  _249
REMARK  103  A    between atoms: _249  and  _250
REMARK  104  A    between atoms: _255  and  _257
REMARK  105  A    between atoms: _257  and  _258
REMARK  106  A    between atoms: _257  and  _260
REMARK  107  A    between atoms: _260  and  _261
REMARK  108  A    between atoms: _261  and  _262
REMARK  109  A    between atoms: _262  and  _263
REMARK  110  A    between atoms: _263  and  _264
REMARK  111  A    between atoms: _268  and  _270
REMARK  112  A    between atoms: _270  and  _271
REMARK  113  A    between atoms: _274  and  _276
REMARK  114  A    between atoms: _276  and  _277
REMARK  115  A    between atoms: _279  and  _281
REMARK  116  A    between atoms: _281  and  _282
REMARK  117  A    between atoms: _281  and  _284
REMARK  118  A    between atoms: _284  and  _285
REMARK  119  A    between atoms: _290  and  _292
REMARK  120  A    between atoms: _292  and  _293
REMARK  121  A    between atoms: _292  and  _295
REMARK  122  A    between atoms: _295  and  _296
REMARK  123  A    between atoms: _296  and  _297
REMARK  124  A    between atoms: _300  and  _302
REMARK  125  A    between atoms: _302  and  _303
REMARK  126  A    between atoms: _302  and  _305
REMARK  127  A    between atoms: _305  and  _306
REMARK  128  A    between atoms: _306  and  _307
REMARK  129  A    between atoms: _312  and  _314
REMARK  130  A    between atoms: _314  and  _315
REMARK  131  A    between atoms: _314  and  _317
REMARK  132  A    between atoms: _317  and  _318
REMARK  133  A    between atoms: _320  and  _322
REMARK  134  A    between atoms: _322  and  _323
REMARK  135  A    between atoms: _322  and  _325
REMARK  136  A    between atoms: _325  and  _326
REMARK  137  A    between atoms: _332  and  _334
REMARK  138  A    between atoms: _334  and  _335
REMARK  139  A    between atoms: _334  and  _337
REMARK  140  A    between atoms: _340  and  _342
REMARK  141  A    between atoms: _342  and  _343
REMARK  142  A    between atoms: _342  and  _345
REMARK  143  A    between atoms: _345  and  _346
REMARK  144  A    between atoms: _349  and  _351
REMARK  145  A    between atoms: _351  and  _352
REMARK  146  A    between atoms: _351  and  _354
REMARK  147  A    between atoms: _354  and  _355
REMARK  148  A    between atoms: _358  and  _360
REMARK  149  A    between atoms: _360  and  _361
REMARK  150  A    between atoms: _360  and  _363
REMARK  151  A    between atoms: _363  and  _364
REMARK  152  A    between atoms: _367  and  _369
REMARK  153  A    between atoms: _369  and  _370
REMARK  154  A    between atoms: _369  and  _372
REMARK  155  A    between atoms: _372  and  _373
REMARK  156  A    between atoms: _376  and  _378
REMARK  157  A    between atoms: _378  and  _379
REMARK  158  A    between atoms: _378  and  _381
REMARK  159  A    between atoms: _381  and  _382
REMARK  160  A    between atoms: _387  and  _388
REMARK  161  A    between atoms: _390  and  _392
REMARK  162  A    between atoms: _392  and  _393
REMARK  163  A    between atoms: _392  and  _395
REMARK  164  A    between atoms: _395  and  _396
REMARK  165  A    between atoms: _401  and  _402
REMARK  166  A    between atoms: _404  and  _406
REMARK  167  A    between atoms: _406  and  _407
REMARK  168  A    between atoms: _406  and  _409
REMARK  169  A    between atoms: _409  and  _410
REMARK  170  A    between atoms: _413  and  _415
REMARK  171  A    between atoms: _415  and  _416
REMARK  172  A    between atoms: _415  and  _418
REMARK  173  A    between atoms: _418  and  _419
REMARK  174  A    between atoms: _422  and  _424
REMARK  175  A    between atoms: _424  and  _425
REMARK  176  A    between atoms: _424  and  _427
REMARK  177  A    between atoms: _427  and  _428
REMARK  178  A    between atoms: _428  and  _429
REMARK  179  A    between atoms: _434  and  _436
REMARK  180  A    between atoms: _436  and  _437
REMARK  181  A    between atoms: _436  and  _439
REMARK  182  A    between atoms: _442  and  _444
REMARK  183  A    between atoms: _444  and  _445
REMARK  184  A    between atoms: _444  and  _447
REMARK  185  A    between atoms: _447  and  _448
REMARK  186  A    between atoms: _451  and  _453
REMARK  187  A    between atoms: _453  and  _454
REMARK  188  A    between atoms: _453  and  _456
REMARK  189  A    between atoms: _456  and  _457
REMARK  190  A    between atoms: _459  and  _461
REMARK  191  A    between atoms: _461  and  _462
REMARK  192  A    between atoms: _464  and  _466
REMARK  193  A    between atoms: _466  and  _467
REMARK  194  A    between atoms: _466  and  _469
REMARK  195  A    between atoms: _469  and  _470
REMARK  196  A    between atoms: _470  and  _802
REMARK  197  A    between atoms: _471  and  _473
REMARK  198  A    between atoms: _473  and  _474
REMARK  199  A    between atoms: _473  and  _476
REMARK  200  A    between atoms: _476  and  _477
REMARK  201  A    between atoms: _482  and  _483
REMARK  202  A    between atoms: _485  and  _487
REMARK  203  A    between atoms: _487  and  _488
REMARK  204  A    between atoms: _487  and  _490
REMARK  205  A    between atoms: _490  and  _491
REMARK  206  A    between atoms: _491  and  _492
REMARK  207  A    between atoms: _497  and  _499
REMARK  208  A    between atoms: _499  and  _500
REMARK  209  A    between atoms: _499  and  _502
REMARK  210  A    between atoms: _502  and  _503
REMARK  211  A    between atoms: _503  and  _504
REMARK  212  A    between atoms: _509  and  _511
REMARK  213  A    between atoms: _511  and  _512
REMARK  214  A    between atoms: _511  and  _514
REMARK  215  A    between atoms: _514  and  _515
REMARK  216  A    between atoms: _520  and  _521
REMARK  217  A    between atoms: _523  and  _525
REMARK  218  A    between atoms: _525  and  _526
REMARK  219  A    between atoms: _529  and  _531
REMARK  220  A    between atoms: _531  and  _532
REMARK  221  A    between atoms: _531  and  _534
REMARK  222  A    between atoms: _534  and  _535
REMARK  223  A    between atoms: _540  and  _541
REMARK  224  A    between atoms: _543  and  _545
REMARK  225  A    between atoms: _545  and  _546
REMARK  226  A    between atoms: _545  and  _548
REMARK  227  A    between atoms: _548  and  _549
REMARK  228  A    between atoms: _552  and  _554
REMARK  229  A    between atoms: _554  and  _555
REMARK  230  A    between atoms: _554  and  _557
REMARK  231  A    between atoms: _559  and  _561
REMARK  232  A    between atoms: _561  and  _562
REMARK  233  A    between atoms: _561  and  _564
REMARK  234  A    between atoms: _564  and  _565
REMARK  235  A    between atoms: _568  and  _570
REMARK  236  A    between atoms: _570  and  _571
REMARK  237  A    between atoms: _570  and  _573
REMARK  238  A    between atoms: _573  and  _574
REMARK  239  A    between atoms: _579  and  _580
REMARK  240  A    between atoms: _582  and  _584
REMARK  241  A    between atoms: _584  and  _585
REMARK  242  A    between atoms: _584  and  _587
REMARK  243  A    between atoms: _587  and  _588
REMARK  244  A    between atoms: _591  and  _593
REMARK  245  A    between atoms: _593  and  _594
REMARK  246  A    between atoms: _593  and  _596
REMARK  247  A    between atoms: _596  and  _597
REMARK  248  A    between atoms: _607  and  _609
REMARK  249  A    between atoms: _609  and  _610
REMARK  250  A    between atoms: _613  and  _615
REMARK  251  A    between atoms: _615  and  _616
REMARK  252  A    between atoms: _619  and  _621
REMARK  253  A    between atoms: _621  and  _622
REMARK  254  A    between atoms: _621  and  _624
REMARK  255  A    between atoms: _624  and  _625
REMARK  256  A    between atoms: _628  and  _630
REMARK  257  A    between atoms: _630  and  _631
REMARK  258  A    between atoms: _630  and  _633
REMARK  259  A    between atoms: _633  and  _634
REMARK  260  A    between atoms: _637  and  _639
REMARK  261  A    between atoms: _639  and  _640
REMARK  262  A    between atoms: _639  and  _642
REMARK  263  A    between atoms: _642  and  _643
REMARK  264  A    between atoms: _646  and  _648
REMARK  265  A    between atoms: _648  and  _649
REMARK  266  A    between atoms: _648  and  _651
REMARK  267  A    between atoms: _651  and  _652
REMARK  268  A    between atoms: _652  and  _653
REMARK  269  A    between atoms: _653  and  _654
REMARK  270  A    between atoms: _654  and  _655
REMARK  271  A    between atoms: _659  and  _661
REMARK  272  A    between atoms: _661  and  _662
REMARK  273  A    between atoms: _661  and  _664
REMARK  274  A    between atoms: _664  and  _665
REMARK  275  A    between atoms: _670  and  _672
REMARK  276  A    between atoms: _672  and  _673
REMARK  277  A    between atoms: _672  and  _675
REMARK  278  A    between atoms: _675  and  _676
REMARK  279  A    between atoms: _676  and  _677
REMARK  280  A    between atoms: _677  and  _678
REMARK  281  A    between atoms: _678  and  _679
REMARK  282  A    between atoms: _683  and  _685
REMARK  283  A    between atoms: _685  and  _686
REMARK  284  A    between atoms: _685  and  _688
REMARK  285  A    between atoms: _688  and  _689
REMARK  286  A    between atoms: _699  and  _701
REMARK  287  A    between atoms: _701  and  _702
REMARK  288  A    between atoms: _701  and  _704
REMARK  289  A    between atoms: _704  and  _705
REMARK  290  A    between atoms: _705  and  _706
REMARK  291  A    between atoms: _711  and  _713
REMARK  292  A    between atoms: _713  and  _714
REMARK  293  A    between atoms: _717  and  _719
REMARK  294  A    between atoms: _719  and  _720
REMARK  295  A    between atoms: _722  and  _724
REMARK  296  A    between atoms: _724  and  _725
REMARK  297  A    between atoms: _724  and  _727
REMARK  298  A    between atoms: _727  and  _728
REMARK  299  A    between atoms: _728  and  _729
REMARK  300  A    between atoms: _732  and  _734
REMARK  301  A    between atoms: _734  and  _735
REMARK  302  A    between atoms: _738  and  _740
REMARK  303  A    between atoms: _740  and  _741
REMARK  304  A    between atoms: _740  and  _743
REMARK  305  A    between atoms: _743  and  _744
REMARK  306  A    between atoms: _744  and  _745
REMARK  307  A    between atoms: _745  and  _746
REMARK  308  A    between atoms: _755  and  _757
REMARK  309  A    between atoms: _757  and  _758
REMARK  310  A    between atoms: _757  and  _760
REMARK  311  A    between atoms: _760  and  _761
REMARK  312  A    between atoms: _764  and  _766
REMARK  313  A    between atoms: _766  and  _767
REMARK  314  A    between atoms: _766  and  _769
REMARK  315  A    between atoms: _769  and  _770
REMARK  316  A    between atoms: _775  and  _776
REMARK  317  A    between atoms: _778  and  _780
REMARK  318  A    between atoms: _780  and  _781
REMARK  319  A    between atoms: _780  and  _783
REMARK  320  A    between atoms: _783  and  _784
REMARK  321  A    between atoms: _787  and  _789
REMARK  322  A    between atoms: _789  and  _790
REMARK  323  A    between atoms: _789  and  _792
REMARK  324  A    between atoms: _792  and  _793
REMARK  325  A    between atoms: _796  and  _798
REMARK  326  A    between atoms: _798  and  _799
REMARK  327  A    between atoms: _798  and  _801
REMARK  328  A    between atoms: _801  and  _802
REMARK  329  A    between atoms: _803  and  _805
REMARK  330  A    between atoms: _805  and  _806
REMARK  331  A    between atoms: _805  and  _808
REMARK  332  A    between atoms: _811  and  _813
REMARK  333  A    between atoms: _813  and  _814
REMARK  334  A    between atoms: _813  and  _816
REMARK  335  A    between atoms: _816  and  _817
REMARK  336  A    between atoms: _817  and  _818
REMARK  337  A    between atoms: _821  and  _823
REMARK  338  A    between atoms: _823  and  _824
REMARK  339  A    between atoms: _823  and  _826
REMARK  340  A    between atoms: _826  and  _827
REMARK  341  A    between atoms: _837  and  _839
REMARK  342  A    between atoms: _839  and  _840
REMARK  343  A    between atoms: _839  and  _842
REMARK  344  A    between atoms: _842  and  _843
REMARK  345  A    between atoms: _846  and  _848
REMARK  346  A    between atoms: _848  and  _849
REMARK  347  A    between atoms: _848  and  _851
REMARK  348  A    between atoms: _851  and  _852
REMARK  349  A    between atoms: _852  and  _853
REMARK  350  A    between atoms: _853  and  _854
REMARK  351  A    between atoms: _863  and  _865
REMARK  352  A    between atoms: _865  and  _866
REMARK  353  A    between atoms: _865  and  _868
REMARK  354  A    between atoms: _868  and  _869
REMARK  355  A    between atoms: _874  and  _875
REMARK                            x       y       z     vdW  Elec       q    Type
REMARK                         _______ _______ _______ _____ _____    ______ ____
ROOT
ATOM      1  O   HOH     1      55.389  21.744   6.496  0.00  0.00    +0.000 OA
ENDROOT
TORSDOF 0
REMARK  Name = ../refined-set-2016/4pge/4pge_pocket.pdb
REMARK  355 active torsions:
REMARK  status: ('A' for Active; 'I' for Inactive)
REMARK    1  A    between atoms: _1  and  _3
REMARK    2  A    between atoms: _3  and  _4
REMARK    3  A    between atoms: _3  and  _6
REMARK    4  A    between atoms: _6  and  _7
REMARK    5  A    between atoms: _10  and  _12
REMARK    6  A    between atoms: _12  and  _13
REMARK    7  A    between atoms: _12  and  _15
REMARK    8  A    between atoms: _15  and  _16
REMARK    9  A    between atoms: _16  and  _17
REMARK   10  A    between atoms: _17  and  _18
REMARK   11  A    between atoms: _27  and  _29
REMARK   12  A    between atoms: _29  and  _30
REMARK   13  A    between atoms: _29  and  _32
REMARK   14  A    between atoms: _32  and  _33
REMARK   15  A    between atoms: _38  and  _39
REMARK   16  A    between atoms: _41  and  _43
REMARK   17  A    between atoms: _43  and  _44
REMARK   18  A    between atoms: _43  and  _46
REMARK   19  A    between atoms: _46  and  _47
REMARK   20  A    between atoms: _53  and  _55
REMARK   21  A    between atoms: _55  and  _56
REMARK   22  A    between atoms: _55  and  _58
REMARK   23  A    between atoms: _61  and  _63
REMARK   24  A    between atoms: _63  and  _64
REMARK   25  A    between atoms: _63  and  _66
REMARK   26  A    between atoms: _66  and  _67
REMARK   27  A    between atoms: _70  and  _72
REMARK   28  A    between atoms: _72  and  _73
REMARK   29  A    between atoms: _76  and  _78
REMARK   30  A    between atoms: _78  and  _79
REMARK   31  A    between atoms: _78  and  _81
REMARK   32  A    between atoms: _81  and  _82
REMARK   33  A    between atoms: _87  and  _88
REMARK   34  A    between atoms: _90  and  _92
REMARK   35  A    between atoms: _92  and  _93
REMARK   36  A    between atoms: _92  and  _95
REMARK   37  A    between atoms: _95  and  _96
REMARK   38  A    between atoms: _96  and  _97
REMARK   39  A    between atoms: _99  and  _101
REMARK   40  A    between atoms: _101  and  _102
REMARK   41  A    between atoms: _101  and  _104
REMARK   42  A    between atoms: _104  and  _105
REMARK   43  A    between atoms: _105  and  _106
REMARK   44  A    between atoms: _109  and  _111
REMARK   45  A    between atoms: _111  and  _112
REMARK   46  A    between atoms: _111  and  _114
REMARK   47  A    between atoms: _117  and  _119
REMARK   48  A    between atoms: _119  and  _120
REMARK   49  A    between atoms: _122  and  _124
REMARK   50  A    between atoms: _124  and  _125
REMARK   51  A    between atoms: _124  and  _127
REMARK   52  A    between atoms: _130  and  _132
REMARK   53  A    between atoms: _132  and  _133
REMARK   54  A    between atoms: _132  and  _135
REMARK   55  A    between atoms: _135  and  _136
REMARK   56  A    between atoms: _142  and  _144
REMARK   57  A    between atoms: _144  and  _145
REMARK   58  A    between atoms: _144  and  _147
REMARK   59  A    between atoms: _150  and  _152
REMARK   60  A    between atoms: _152  and  _153
REMARK   61  A    between atoms: _152  and  _155
REMARK   62  A    between atoms: _155  and  _156
REMARK   63  A    between atoms: _161  and  _162
REMARK   64  A    between atoms: _164  and  _166
REMARK   65  A    between atoms: _166  and  _167
REMARK   66  A    between atoms: _166  and  _169
REMARK   67  A    between atoms: _169  and  _170
REMARK   68  A    between atoms: _170  and  _171
REMARK   69  A    between atoms: _173  and  _175
REMARK   70  A    between atoms: _175  and  _176
REMARK   71  A    between atoms: _175  and  _178
REMARK   72  A    between atoms: _178  and  _179
REMARK   73  A    between atoms: _179  and  _180
REMARK   74  A    between atoms: _183  and  _185
REMARK   75  A    between atoms: _185  and  _186
REMARK   76  A    between atoms: _185  and  _188
REMARK   77  A    between atoms: _188  and  _189
REMARK   78  A    between atoms: _189  and  _190
REMARK   79  A    between atoms: _193  and  _195
REMARK   80  A    between atoms: _195  and  _196
REMARK   81  A    between atoms: _195  and  _198
REMARK   82  A    between atoms: _198  and  _199
REMARK   83  A    between atoms: _204  and  _205
REMARK   84  A    between atoms: _207  and  _209
REMARK   85  A    between atoms: _209  and  _210
REMARK   86  A    between atoms: _209  and  _212
REMARK   87  A    between atoms: _212  and  _213
REMARK   88  A    between atoms: _213  and  _214
REMARK   89  A    between atoms: _214  and  _215
REMARK   90  A    between atoms: _224  and  _226
REMARK   91  A    between atoms: _226  and  _227
REMARK   92  A    between atoms: _226  and  _229
REMARK   93  A    between atoms: _229  and  _230
REMARK   94  A    between atoms: _230  and  _231
REMARK   95  A    between atoms: _234  and  _236
REMARK   96  A    between atoms: _236  and  _237
REMARK   97  A    between atoms: _236  and  _239
REMARK   98  A    between atoms: _239  and  _240
REMARK   99  A    between atoms: _243  and  _245
REMARK  100  A    between atoms: _245  and  _246
REMARK  101  A    between atoms: _245  and  _248
REMARK  102  A    between atoms: _248  and  _249
REMARK  103  A    between atoms: _249  and  _250
REMARK  104  A    between atoms: _255  and  _257
REMARK  105  A    between atoms: _257  and  _258
REMARK  106  A    between atoms: _257  and  _260
REMARK  107  A    between atoms: _260  and  _261
REMARK  108  A    between atoms: _261  and  _262
REMARK  109  A    between atoms: _262  and  _263
REMARK  110  A    between atoms: _263  and  _264
REMARK  111  A    between atoms: _268  and  _270
REMARK  112  A    between atoms: _270  and  _271
REMARK  113  A    between atoms: _274  and  _276
REMARK  114  A    between atoms: _276  and  _277
REMARK  115  A    between atoms: _279  and  _281
REMARK  116  A    between atoms: _281  and  _282
REMARK  117  A    between atoms: _281  and  _284
REMARK  118  A    between atoms: _284  and  _285
REMARK  119  A    between atoms: _290  and  _292
REMARK  120  A    between atoms: _292  and  _293
REMARK  121  A    between atoms: _292  and  _295
REMARK  122  A    between atoms: _295  and  _296
REMARK  123  A    between atoms: _296  and  _297
REMARK  124  A    between atoms: _300  and  _302
REMARK  125  A    between atoms: _302  and  _303
REMARK  126  A    between atoms: _302  and  _305
REMARK  127  A    between atoms: _305  and  _306
REMARK  128  A    between atoms: _306  and  _307
REMARK  129  A    between atoms: _312  and  _314
REMARK  130  A    between atoms: _314  and  _315
REMARK  131  A    between atoms: _314  and  _317
REMARK  132  A    between atoms: _317  and  _318
REMARK  133  A    between atoms: _320  and  _322
REMARK  134  A    between atoms: _322  and  _323
REMARK  135  A    between atoms: _322  and  _325
REMARK  136  A    between atoms: _325  and  _326
REMARK  137  A    between atoms: _332  and  _334
REMARK  138  A    between atoms: _334  and  _335
REMARK  139  A    between atoms: _334  and  _337
REMARK  140  A    between atoms: _340  and  _342
REMARK  141  A    between atoms: _342  and  _343
REMARK  142  A    between atoms: _342  and  _345
REMARK  143  A    between atoms: _345  and  _346
REMARK  144  A    between atoms: _349  and  _351
REMARK  145  A    between atoms: _351  and  _352
REMARK  146  A    between atoms: _351  and  _354
REMARK  147  A    between atoms: _354  and  _355
REMARK  148  A    between atoms: _358  and  _360
REMARK  149  A    between atoms: _360  and  _361
REMARK  150  A    between atoms: _360  and  _363
REMARK  151  A    between atoms: _363  and  _364
REMARK  152  A    between atoms: _367  and  _369
REMARK  153  A    between atoms: _369  and  _370
REMARK  154  A    between atoms: _369  and  _372
REMARK  155  A    between atoms: _372  and  _373
REMARK  156  A    between atoms: _376  and  _378
REMARK  157  A    between atoms: _378  and  _379
REMARK  158  A    between atoms: _378  and  _381
REMARK  159  A    between atoms: _381  and  _382
REMARK  160  A    between atoms: _387  and  _388
REMARK  161  A    between atoms: _390  and  _392
REMARK  162  A    between atoms: _392  and  _393
REMARK  163  A    between atoms: _392  and  _395
REMARK  164  A    between atoms: _395  and  _396
REMARK  165  A    between atoms: _401  and  _402
REMARK  166  A    between atoms: _404  and  _406
REMARK  167  A    between atoms: _406  and  _407
REMARK  168  A    between atoms: _406  and  _409
REMARK  169  A    between atoms: _409  and  _410
REMARK  170  A    between atoms: _413  and  _415
REMARK  171  A    between atoms: _415  and  _416
REMARK  172  A    between atoms: _415  and  _418
REMARK  173  A    between atoms: _418  and  _419
REMARK  174  A    between atoms: _422  and  _424
REMARK  175  A    between atoms: _424  and  _425
REMARK  176  A    between atoms: _424  and  _427
REMARK  177  A    between atoms: _427  and  _428
REMARK  178  A    between atoms: _428  and  _429
REMARK  179  A    between atoms: _434  and  _436
REMARK  180  A    between atoms: _436  and  _437
REMARK  181  A    between atoms: _436  and  _439
REMARK  182  A    between atoms: _442  and  _444
REMARK  183  A    between atoms: _444  and  _445
REMARK  184  A    between atoms: _444  and  _447
REMARK  185  A    between atoms: _447  and  _448
REMARK  186  A    between atoms: _451  and  _453
REMARK  187  A    between atoms: _453  and  _454
REMARK  188  A    between atoms: _453  and  _456
REMARK  189  A    between atoms: _456  and  _457
REMARK  190  A    between atoms: _459  and  _461
REMARK  191  A    between atoms: _461  and  _462
REMARK  192  A    between atoms: _464  and  _466
REMARK  193  A    between atoms: _466  and  _467
REMARK  194  A    between atoms: _466  and  _469
REMARK  195  A    between atoms: _469  and  _470
REMARK  196  A    between atoms: _470  and  _802
REMARK  197  A    between atoms: _471  and  _473
REMARK  198  A    between atoms: _473  and  _474
REMARK  199  A    between atoms: _473  and  _476
REMARK  200  A    between atoms: _476  and  _477
REMARK  201  A    between atoms: _482  and  _483
REMARK  202  A    between atoms: _485  and  _487
REMARK  203  A    between atoms: _487  and  _488
REMARK  204  A    between atoms: _487  and  _490
REMARK  205  A    between atoms: _490  and  _491
REMARK  206  A    between atoms: _491  and  _492
REMARK  207  A    between atoms: _497  and  _499
REMARK  208  A    between atoms: _499  and  _500
REMARK  209  A    between atoms: _499  and  _502
REMARK  210  A    between atoms: _502  and  _503
REMARK  211  A    between atoms: _503  and  _504
REMARK  212  A    between atoms: _509  and  _511
REMARK  213  A    between atoms: _511  and  _512
REMARK  214  A    between atoms: _511  and  _514
REMARK  215  A    between atoms: _514  and  _515
REMARK  216  A    between atoms: _520  and  _521
REMARK  217  A    between atoms: _523  and  _525
REMARK  218  A    between atoms: _525  and  _526
REMARK  219  A    between atoms: _529  and  _531
REMARK  220  A    between atoms: _531  and  _532
REMARK  221  A    between atoms: _531  and  _534
REMARK  222  A    between atoms: _534  and  _535
REMARK  223  A    between atoms: _540  and  _541
REMARK  224  A    between atoms: _543  and  _545
REMARK  225  A    between atoms: _545  and  _546
REMARK  226  A    between atoms: _545  and  _548
REMARK  227  A    between atoms: _548  and  _549
REMARK  228  A    between atoms: _552  and  _554
REMARK  229  A    between atoms: _554  and  _555
REMARK  230  A    between atoms: _554  and  _557
REMARK  231  A    between atoms: _559  and  _561
REMARK  232  A    between atoms: _561  and  _562
REMARK  233  A    between atoms: _561  and  _564
REMARK  234  A    between atoms: _564  and  _565
REMARK  235  A    between atoms: _568  and  _570
REMARK  236  A    between atoms: _570  and  _571
REMARK  237  A    between atoms: _570  and  _573
REMARK  238  A    between atoms: _573  and  _574
REMARK  239  A    between atoms: _579  and  _580
REMARK  240  A    between atoms: _582  and  _584
REMARK  241  A    between atoms: _584  and  _585
REMARK  242  A    between atoms: _584  and  _587
REMARK  243  A    between atoms: _587  and  _588
REMARK  244  A    between atoms: _591  and  _593
REMARK  245  A    between atoms: _593  and  _594
REMARK  246  A    between atoms: _593  and  _596
REMARK  247  A    between atoms: _596  and  _597
REMARK  248  A    between atoms: _607  and  _609
REMARK  249  A    between atoms: _609  and  _610
REMARK  250  A    between atoms: _613  and  _615
REMARK  251  A    between atoms: _615  and  _616
REMARK  252  A    between atoms: _619  and  _621
REMARK  253  A    between atoms: _621  and  _622
REMARK  254  A    between atoms: _621  and  _624
REMARK  255  A    between atoms: _624  and  _625
REMARK  256  A    between atoms: _628  and  _630
REMARK  257  A    between atoms: _630  and  _631
REMARK  258  A    between atoms: _630  and  _633
REMARK  259  A    between atoms: _633  and  _634
REMARK  260  A    between atoms: _637  and  _639
REMARK  261  A    between atoms: _639  and  _640
REMARK  262  A    between atoms: _639  and  _642
REMARK  263  A    between atoms: _642  and  _643
REMARK  264  A    between atoms: _646  and  _648
REMARK  265  A    between atoms: _648  and  _649
REMARK  266  A    between atoms: _648  and  _651
REMARK  267  A    between atoms: _651  and  _652
REMARK  268  A    between atoms: _652  and  _653
REMARK  269  A    between atoms: _653  and  _654
REMARK  270  A    between atoms: _654  and  _655
REMARK  271  A    between atoms: _659  and  _661
REMARK  272  A    between atoms: _661  and  _662
REMARK  273  A    between atoms: _661  and  _664
REMARK  274  A    between atoms: _664  and  _665
REMARK  275  A    between atoms: _670  and  _672
REMARK  276  A    between atoms: _672  and  _673
REMARK  277  A    between atoms: _672  and  _675
REMARK  278  A    between atoms: _675  and  _676
REMARK  279  A    between atoms: _676  and  _677
REMARK  280  A    between atoms: _677  and  _678
REMARK  281  A    between atoms: _678  and  _679
REMARK  282  A    between atoms: _683  and  _685
REMARK  283  A    between atoms: _685  and  _686
REMARK  284  A    between atoms: _685  and  _688
REMARK  285  A    between atoms: _688  and  _689
REMARK  286  A    between atoms: _699  and  _701
REMARK  287  A    between atoms: _701  and  _702
REMARK  288  A    between atoms: _701  and  _704
REMARK  289  A    between atoms: _704  and  _705
REMARK  290  A    between atoms: _705  and  _706
REMARK  291  A    between atoms: _711  and  _713
REMARK  292  A    between atoms: _713  and  _714
REMARK  293  A    between atoms: _717  and  _719
REMARK  294  A    between atoms: _719  and  _720
REMARK  295  A    between atoms: _722  and  _724
REMARK  296  A    between atoms: _724  and  _725
REMARK  297  A    between atoms: _724  and  _727
REMARK  298  A    between atoms: _727  and  _728
REMARK  299  A    between atoms: _728  and  _729
REMARK  300  A    between atoms: _732  and  _734
REMARK  301  A    between atoms: _734  and  _735
REMARK  302  A    between atoms: _738  and  _740
REMARK  303  A    between atoms: _740  and  _741
REMARK  304  A    between atoms: _740  and  _743
REMARK  305  A    between atoms: _743  and  _744
REMARK  306  A    between atoms: _744  and  _745
REMARK  307  A    between atoms: _745  and  _746
REMARK  308  A    between atoms: _755  and  _757
REMARK  309  A    between atoms: _757  and  _758
REMARK  310  A    between atoms: _757  and  _760
REMARK  311  A    between atoms: _760  and  _761
REMARK  312  A    between atoms: _764  and  _766
REMARK  313  A    between atoms: _766  and  _767
REMARK  314  A    between atoms: _766  and  _769
REMARK  315  A    between atoms: _769  and  _770
REMARK  316  A    between atoms: _775  and  _776
REMARK  317  A    between atoms: _778  and  _780
REMARK  318  A    between atoms: _780  and  _781
REMARK  319  A    between atoms: _780  and  _783
REMARK  320  A    between atoms: _783  and  _784
REMARK  321  A    between atoms: _787  and  _789
REMARK  322  A    between atoms: _789  and  _790
REMARK  323  A    between atoms: _789  and  _792
REMARK  324  A    between atoms: _792  and  _793
REMARK  325  A    between atoms: _796  and  _798
REMARK  326  A    between atoms: _798  and  _799
REMARK  327  A    between atoms: _798  and  _801
REMARK  328  A    between atoms: _801  and  _802
REMARK  329  A    between atoms: _803  and  _805
REMARK  330  A    between atoms: _805  and  _806
REMARK  331  A    between atoms: _805  and  _808
REMARK  332  A    between atoms: _811  and  _813
REMARK  333  A    between atoms: _813  and  _814
REMARK  334  A    between atoms: _813  and  _816
REMARK  335  A    between atoms: _816  and  _817
REMARK  336  A    between atoms: _817  and  _818
REMARK  337  A    between atoms: _821  and  _823
REMARK  338  A    between atoms: _823  and  _824
REMARK  339  A    between atoms: _823  and  _826
REMARK  340  A    between atoms: _826  and  _827
REMARK  341  A    between atoms: _837  and  _839
REMARK  342  A    between atoms: _839  and  _840
REMARK  343  A    between atoms: _839  and  _842
REMARK  344  A    between atoms: _842  and  _843
REMARK  345  A    between atoms: _846  and  _848
REMARK  346  A    between atoms: _848  and  _849
REMARK  347  A    between atoms: _848  and  _851
REMARK  348  A    between atoms: _851  and  _852
REMARK  349  A    between atoms: _852  and  _853
REMARK  350  A    between atoms: _853  and  _854
REMARK  351  A    between atoms: _863  and  _865
REMARK  352  A    between atoms: _865  and  _866
REMARK  353  A    between atoms: _865  and  _868
REMARK  354  A    between atoms: _868  and  _869
REMARK  355  A    between atoms: _874  and  _875
REMARK                            x       y       z     vdW  Elec       q    Type
REMARK                         _______ _______ _______ _____ _____    ______ ____
ROOT
ATOM      1  O   HOH     1      61.507  22.317   8.096  0.00  0.00    +0.000 OA
ENDROOT
TORSDOF 0
REMARK  Name = ../refined-set-2016/4pge/4pge_pocket.pdb
REMARK  355 active torsions:
REMARK  status: ('A' for Active; 'I' for Inactive)
REMARK    1  A    between atoms: _1  and  _3
REMARK    2  A    between atoms: _3  and  _4
REMARK    3  A    between atoms: _3  and  _6
REMARK    4  A    between atoms: _6  and  _7
REMARK    5  A    between atoms: _10  and  _12
REMARK    6  A    between atoms: _12  and  _13
REMARK    7  A    between atoms: _12  and  _15
REMARK    8  A    between atoms: _15  and  _16
REMARK    9  A    between atoms: _16  and  _17
REMARK   10  A    between atoms: _17  and  _18
REMARK   11  A    between atoms: _27  and  _29
REMARK   12  A    between atoms: _29  and  _30
REMARK   13  A    between atoms: _29  and  _32
REMARK   14  A    between atoms: _32  and  _33
REMARK   15  A    between atoms: _38  and  _39
REMARK   16  A    between atoms: _41  and  _43
REMARK   17  A    between atoms: _43  and  _44
REMARK   18  A    between atoms: _43  and  _46
REMARK   19  A    between atoms: _46  and  _47
REMARK   20  A    between atoms: _53  and  _55
REMARK   21  A    between atoms: _55  and  _56
REMARK   22  A    between atoms: _55  and  _58
REMARK   23  A    between atoms: _61  and  _63
REMARK   24  A    between atoms: _63  and  _64
REMARK   25  A    between atoms: _63  and  _66
REMARK   26  A    between atoms: _66  and  _67
REMARK   27  A    between atoms: _70  and  _72
REMARK   28  A    between atoms: _72  and  _73
REMARK   29  A    between atoms: _76  and  _78
REMARK   30  A    between atoms: _78  and  _79
REMARK   31  A    between atoms: _78  and  _81
REMARK   32  A    between atoms: _81  and  _82
REMARK   33  A    between atoms: _87  and  _88
REMARK   34  A    between atoms: _90  and  _92
REMARK   35  A    between atoms: _92  and  _93
REMARK   36  A    between atoms: _92  and  _95
REMARK   37  A    between atoms: _95  and  _96
REMARK   38  A    between atoms: _96  and  _97
REMARK   39  A    between atoms: _99  and  _101
REMARK   40  A    between atoms: _101  and  _102
REMARK   41  A    between atoms: _101  and  _104
REMARK   42  A    between atoms: _104  and  _105
REMARK   43  A    between atoms: _105  and  _106
REMARK   44  A    between atoms: _109  and  _111
REMARK   45  A    between atoms: _111  and  _112
REMARK   46  A    between atoms: _111  and  _114
REMARK   47  A    between atoms: _117  and  _119
REMARK   48  A    between atoms: _119  and  _120
REMARK   49  A    between atoms: _122  and  _124
REMARK   50  A    between atoms: _124  and  _125
REMARK   51  A    between atoms: _124  and  _127
REMARK   52  A    between atoms: _130  and  _132
REMARK   53  A    between atoms: _132  and  _133
REMARK   54  A    between atoms: _132  and  _135
REMARK   55  A    between atoms: _135  and  _136
REMARK   56  A    between atoms: _142  and  _144
REMARK   57  A    between atoms: _144  and  _145
REMARK   58  A    between atoms: _144  and  _147
REMARK   59  A    between atoms: _150  and  _152
REMARK   60  A    between atoms: _152  and  _153
REMARK   61  A    between atoms: _152  and  _155
REMARK   62  A    between atoms: _155  and  _156
REMARK   63  A    between atoms: _161  and  _162
REMARK   64  A    between atoms: _164  and  _166
REMARK   65  A    between atoms: _166  and  _167
REMARK   66  A    between atoms: _166  and  _169
REMARK   67  A    between atoms: _169  and  _170
REMARK   68  A    between atoms: _170  and  _171
REMARK   69  A    between atoms: _173  and  _175
REMARK   70  A    between atoms: _175  and  _176
REMARK   71  A    between atoms: _175  and  _178
REMARK   72  A    between atoms: _178  and  _179
REMARK   73  A    between atoms: _179  and  _180
REMARK   74  A    between atoms: _183  and  _185
REMARK   75  A    between atoms: _185  and  _186
REMARK   76  A    between atoms: _185  and  _188
REMARK   77  A    between atoms: _188  and  _189
REMARK   78  A    between atoms: _189  and  _190
REMARK   79  A    between atoms: _193  and  _195
REMARK   80  A    between atoms: _195  and  _196
REMARK   81  A    between atoms: _195  and  _198
REMARK   82  A    between atoms: _198  and  _199
REMARK   83  A    between atoms: _204  and  _205
REMARK   84  A    between atoms: _207  and  _209
REMARK   85  A    between atoms: _209  and  _210
REMARK   86  A    between atoms: _209  and  _212
REMARK   87  A    between atoms: _212  and  _213
REMARK   88  A    between atoms: _213  and  _214
REMARK   89  A    between atoms: _214  and  _215
REMARK   90  A    between atoms: _224  and  _226
REMARK   91  A    between atoms: _226  and  _227
REMARK   92  A    between atoms: _226  and  _229
REMARK   93  A    between atoms: _229  and  _230
REMARK   94  A    between atoms: _230  and  _231
REMARK   95  A    between atoms: _234  and  _236
REMARK   96  A    between atoms: _236  and  _237
REMARK   97  A    between atoms: _236  and  _239
REMARK   98  A    between atoms: _239  and  _240
REMARK   99  A    between atoms: _243  and  _245
REMARK  100  A    between atoms: _245  and  _246
REMARK  101  A    between atoms: _245  and  _248
REMARK  102  A    between atoms: _248  and  _249
REMARK  103  A    between atoms: _249  and  _250
REMARK  104  A    between atoms: _255  and  _257
REMARK  105  A    between atoms: _257  and  _258
REMARK  106  A    between atoms: _257  and  _260
REMARK  107  A    between atoms: _260  and  _261
REMARK  108  A    between atoms: _261  and  _262
REMARK  109  A    between atoms: _262  and  _263
REMARK  110  A    between atoms: _263  and  _264
REMARK  111  A    between atoms: _268  and  _270
REMARK  112  A    between atoms: _270  and  _271
REMARK  113  A    between atoms: _274  and  _276
REMARK  114  A    between atoms: _276  and  _277
REMARK  115  A    between atoms: _279  and  _281
REMARK  116  A    between atoms: _281  and  _282
REMARK  117  A    between atoms: _281  and  _284
REMARK  118  A    between atoms: _284  and  _285
REMARK  119  A    between atoms: _290  and  _292
REMARK  120  A    between atoms: _292  and  _293
REMARK  121  A    between atoms: _292  and  _295
REMARK  122  A    between atoms: _295  and  _296
REMARK  123  A    between atoms: _296  and  _297
REMARK  124  A    between atoms: _300  and  _302
REMARK  125  A    between atoms: _302  and  _303
REMARK  126  A    between atoms: _302  and  _305
REMARK  127  A    between atoms: _305  and  _306
REMARK  128  A    between atoms: _306  and  _307
REMARK  129  A    between atoms: _312  and  _314
REMARK  130  A    between atoms: _314  and  _315
REMARK  131  A    between atoms: _314  and  _317
REMARK  132  A    between atoms: _317  and  _318
REMARK  133  A    between atoms: _320  and  _322
REMARK  134  A    between atoms: _322  and  _323
REMARK  135  A    between atoms: _322  and  _325
REMARK  136  A    between atoms: _325  and  _326
REMARK  137  A    between atoms: _332  and  _334
REMARK  138  A    between atoms: _334  and  _335
REMARK  139  A    between atoms: _334  and  _337
REMARK  140  A    between atoms: _340  and  _342
REMARK  141  A    between atoms: _342  and  _343
REMARK  142  A    between atoms: _342  and  _345
REMARK  143  A    between atoms: _345  and  _346
REMARK  144  A    between atoms: _349  and  _351
REMARK  145  A    between atoms: _351  and  _352
REMARK  146  A    between atoms: _351  and  _354
REMARK  147  A    between atoms: _354  and  _355
REMARK  148  A    between atoms: _358  and  _360
REMARK  149  A    between atoms: _360  and  _361
REMARK  150  A    between atoms: _360  and  _363
REMARK  151  A    between atoms: _363  and  _364
REMARK  152  A    between atoms: _367  and  _369
REMARK  153  A    between atoms: _369  and  _370
REMARK  154  A    between atoms: _369  and  _372
REMARK  155  A    between atoms: _372  and  _373
REMARK  156  A    between atoms: _376  and  _378
REMARK  157  A    between atoms: _378  and  _379
REMARK  158  A    between atoms: _378  and  _381
REMARK  159  A    between atoms: _381  and  _382
REMARK  160  A    between atoms: _387  and  _388
REMARK  161  A    between atoms: _390  and  _392
REMARK  162  A    between atoms: _392  and  _393
REMARK  163  A    between atoms: _392  and  _395
REMARK  164  A    between atoms: _395  and  _396
REMARK  165  A    between atoms: _401  and  _402
REMARK  166  A    between atoms: _404  and  _406
REMARK  167  A    between atoms: _406  and  _407
REMARK  168  A    between atoms: _406  and  _409
REMARK  169  A    between atoms: _409  and  _410
REMARK  170  A    between atoms: _413  and  _415
REMARK  171  A    between atoms: _415  and  _416
REMARK  172  A    between atoms: _415  and  _418
REMARK  173  A    between atoms: _418  and  _419
REMARK  174  A    between atoms: _422  and  _424
REMARK  175  A    between atoms: _424  and  _425
REMARK  176  A    between atoms: _424  and  _427
REMARK  177  A    between atoms: _427  and  _428
REMARK  178  A    between atoms: _428  and  _429
REMARK  179  A    between atoms: _434  and  _436
REMARK  180  A    between atoms: _436  and  _437
REMARK  181  A    between atoms: _436  and  _439
REMARK  182  A    between atoms: _442  and  _444
REMARK  183  A    between atoms: _444  and  _445
REMARK  184  A    between atoms: _444  and  _447
REMARK  185  A    between atoms: _447  and  _448
REMARK  186  A    between atoms: _451  and  _453
REMARK  187  A    between atoms: _453  and  _454
REMARK  188  A    between atoms: _453  and  _456
REMARK  189  A    between atoms: _456  and  _457
REMARK  190  A    between atoms: _459  and  _461
REMARK  191  A    between atoms: _461  and  _462
REMARK  192  A    between atoms: _464  and  _466
REMARK  193  A    between atoms: _466  and  _467
REMARK  194  A    between atoms: _466  and  _469
REMARK  195  A    between atoms: _469  and  _470
REMARK  196  A    between atoms: _470  and  _802
REMARK  197  A    between atoms: _471  and  _473
REMARK  198  A    between atoms: _473  and  _474
REMARK  199  A    between atoms: _473  and  _476
REMARK  200  A    between atoms: _476  and  _477
REMARK  201  A    between atoms: _482  and  _483
REMARK  202  A    between atoms: _485  and  _487
REMARK  203  A    between atoms: _487  and  _488
REMARK  204  A    between atoms: _487  and  _490
REMARK  205  A    between atoms: _490  and  _491
REMARK  206  A    between atoms: _491  and  _492
REMARK  207  A    between atoms: _497  and  _499
REMARK  208  A    between atoms: _499  and  _500
REMARK  209  A    between atoms: _499  and  _502
REMARK  210  A    between atoms: _502  and  _503
REMARK  211  A    between atoms: _503  and  _504
REMARK  212  A    between atoms: _509  and  _511
REMARK  213  A    between atoms: _511  and  _512
REMARK  214  A    between atoms: _511  and  _514
REMARK  215  A    between atoms: _514  and  _515
REMARK  216  A    between atoms: _520  and  _521
REMARK  217  A    between atoms: _523  and  _525
REMARK  218  A    between atoms: _525  and  _526
REMARK  219  A    between atoms: _529  and  _531
REMARK  220  A    between atoms: _531  and  _532
REMARK  221  A    between atoms: _531  and  _534
REMARK  222  A    between atoms: _534  and  _535
REMARK  223  A    between atoms: _540  and  _541
REMARK  224  A    between atoms: _543  and  _545
REMARK  225  A    between atoms: _545  and  _546
REMARK  226  A    between atoms: _545  and  _548
REMARK  227  A    between atoms: _548  and  _549
REMARK  228  A    between atoms: _552  and  _554
REMARK  229  A    between atoms: _554  and  _555
REMARK  230  A    between atoms: _554  and  _557
REMARK  231  A    between atoms: _559  and  _561
REMARK  232  A    between atoms: _561  and  _562
REMARK  233  A    between atoms: _561  and  _564
REMARK  234  A    between atoms: _564  and  _565
REMARK  235  A    between atoms: _568  and  _570
REMARK  236  A    between atoms: _570  and  _571
REMARK  237  A    between atoms: _570  and  _573
REMARK  238  A    between atoms: _573  and  _574
REMARK  239  A    between atoms: _579  and  _580
REMARK  240  A    between atoms: _582  and  _584
REMARK  241  A    between atoms: _584  and  _585
REMARK  242  A    between atoms: _584  and  _587
REMARK  243  A    between atoms: _587  and  _588
REMARK  244  A    between atoms: _591  and  _593
REMARK  245  A    between atoms: _593  and  _594
REMARK  246  A    between atoms: _593  and  _596
REMARK  247  A    between atoms: _596  and  _597
REMARK  248  A    between atoms: _607  and  _609
REMARK  249  A    between atoms: _609  and  _610
REMARK  250  A    between atoms: _613  and  _615
REMARK  251  A    between atoms: _615  and  _616
REMARK  252  A    between atoms: _619  and  _621
REMARK  253  A    between atoms: _621  and  _622
REMARK  254  A    between atoms: _621  and  _624
REMARK  255  A    between atoms: _624  and  _625
REMARK  256  A    between atoms: _628  and  _630
REMARK  257  A    between atoms: _630  and  _631
REMARK  258  A    between atoms: _630  and  _633
REMARK  259  A    between atoms: _633  and  _634
REMARK  260  A    between atoms: _637  and  _639
REMARK  261  A    between atoms: _639  and  _640
REMARK  262  A    between atoms: _639  and  _642
REMARK  263  A    between atoms: _642  and  _643
REMARK  264  A    between atoms: _646  and  _648
REMARK  265  A    between atoms: _648  and  _649
REMARK  266  A    between atoms: _648  and  _651
REMARK  267  A    between atoms: _651  and  _652
REMARK  268  A    between atoms: _652  and  _653
REMARK  269  A    between atoms: _653  and  _654
REMARK  270  A    between atoms: _654  and  _655
REMARK  271  A    between atoms: _659  and  _661
REMARK  272  A    between atoms: _661  and  _662
REMARK  273  A    between atoms: _661  and  _664
REMARK  274  A    between atoms: _664  and  _665
REMARK  275  A    between atoms: _670  and  _672
REMARK  276  A    between atoms: _672  and  _673
REMARK  277  A    between atoms: _672  and  _675
REMARK  278  A    between atoms: _675  and  _676
REMARK  279  A    between atoms: _676  and  _677
REMARK  280  A    between atoms: _677  and  _678
REMARK  281  A    between atoms: _678  and  _679
REMARK  282  A    between atoms: _683  and  _685
REMARK  283  A    between atoms: _685  and  _686
REMARK  284  A    between atoms: _685  and  _688
REMARK  285  A    between atoms: _688  and  _689
REMARK  286  A    between atoms: _699  and  _701
REMARK  287  A    between atoms: _701  and  _702
REMARK  288  A    between atoms: _701  and  _704
REMARK  289  A    between atoms: _704  and  _705
REMARK  290  A    between atoms: _705  and  _706
REMARK  291  A    between atoms: _711  and  _713
REMARK  292  A    between atoms: _713  and  _714
REMARK  293  A    between atoms: _717  and  _719
REMARK  294  A    between atoms: _719  and  _720
REMARK  295  A    between atoms: _722  and  _724
REMARK  296  A    between atoms: _724  and  _725
REMARK  297  A    between atoms: _724  and  _727
REMARK  298  A    between atoms: _727  and  _728
REMARK  299  A    between atoms: _728  and  _729
REMARK  300  A    between atoms: _732  and  _734
REMARK  301  A    between atoms: _734  and  _735
REMARK  302  A    between atoms: _738  and  _740
REMARK  303  A    between atoms: _740  and  _741
REMARK  304  A    between atoms: _740  and  _743
REMARK  305  A    between atoms: _743  and  _744
REMARK  306  A    between atoms: _744  and  _745
REMARK  307  A    between atoms: _745  and  _746
REMARK  308  A    between atoms: _755  and  _757
REMARK  309  A    between atoms: _757  and  _758
REMARK  310  A    between atoms: _757  and  _760
REMARK  311  A    between atoms: _760  and  _761
REMARK  312  A    between atoms: _764  and  _766
REMARK  313  A    between atoms: _766  and  _767
REMARK  314  A    between atoms: _766  and  _769
REMARK  315  A    between atoms: _769  and  _770
REMARK  316  A    between atoms: _775  and  _776
REMARK  317  A    between atoms: _778  and  _780
REMARK  318  A    between atoms: _780  and  _781
REMARK  319  A    between atoms: _780  and  _783
REMARK  320  A    between atoms: _783  and  _784
REMARK  321  A    between atoms: _787  and  _789
REMARK  322  A    between atoms: _789  and  _790
REMARK  323  A    between atoms: _789  and  _792
REMARK  324  A    between atoms: _792  and  _793
REMARK  325  A    between atoms: _796  and  _798
REMARK  326  A    between atoms: _798  and  _799
REMARK  327  A    between atoms: _798  and  _801
REMARK  328  A    between atoms: _801  and  _802
REMARK  329  A    between atoms: _803  and  _805
REMARK  330  A    between atoms: _805  and  _806
REMARK  331  A    between atoms: _805  and  _808
REMARK  332  A    between atoms: _811  and  _813
REMARK  333  A    between atoms: _813  and  _814
REMARK  334  A    between atoms: _813  and  _816
REMARK  335  A    between atoms: _816  and  _817
REMARK  336  A    between atoms: _817  and  _818
REMARK  337  A    between atoms: _821  and  _823
REMARK  338  A    between atoms: _823  and  _824
REMARK  339  A    between atoms: _823  and  _826
REMARK  340  A    between atoms: _826  and  _827
REMARK  341  A    between atoms: _837  and  _839
REMARK  342  A    between atoms: _839  and  _840
REMARK  343  A    between atoms: _839  and  _842
REMARK  344  A    between atoms: _842  and  _843
REMARK  345  A    between atoms: _846  and  _848
REMARK  346  A    between atoms: _848  and  _849
REMARK  347  A    between atoms: _848  and  _851
REMARK  348  A    between atoms: _851  and  _852
REMARK  349  A    between atoms: _852  and  _853
REMARK  350  A    between atoms: _853  and  _854
REMARK  351  A    between atoms: _863  and  _865
REMARK  352  A    between atoms: _865  and  _866
REMARK  353  A    between atoms: _865  and  _868
REMARK  354  A    between atoms: _868  and  _869
REMARK  355  A    between atoms: _874  and  _875
REMARK                            x       y       z     vdW  Elec       q    Type
REMARK                         _______ _______ _______ _____ _____    ______ ____
ROOT
ATOM      1  O   HOH     1      61.893  19.785 -16.169  0.00  0.00    +0.000 OA
ENDROOT
TORSDOF 0
REMARK  Name = ../refined-set-2016/4pge/4pge_pocket.pdb
REMARK  355 active torsions:
REMARK  status: ('A' for Active; 'I' for Inactive)
REMARK    1  A    between atoms: _1  and  _3
REMARK    2  A    between atoms: _3  and  _4
REMARK    3  A    between atoms: _3  and  _6
REMARK    4  A    between atoms: _6  and  _7
REMARK    5  A    between atoms: _10  and  _12
REMARK    6  A    between atoms: _12  and  _13
REMARK    7  A    between atoms: _12  and  _15
REMARK    8  A    between atoms: _15  and  _16
REMARK    9  A    between atoms: _16  and  _17
REMARK   10  A    between atoms: _17  and  _18
REMARK   11  A    between atoms: _27  and  _29
REMARK   12  A    between atoms: _29  and  _30
REMARK   13  A    between atoms: _29  and  _32
REMARK   14  A    between atoms: _32  and  _33
REMARK   15  A    between atoms: _38  and  _39
REMARK   16  A    between atoms: _41  and  _43
REMARK   17  A    between atoms: _43  and  _44
REMARK   18  A    between atoms: _43  and  _46
REMARK   19  A    between atoms: _46  and  _47
REMARK   20  A    between atoms: _53  and  _55
REMARK   21  A    between atoms: _55  and  _56
REMARK   22  A    between atoms: _55  and  _58
REMARK   23  A    between atoms: _61  and  _63
REMARK   24  A    between atoms: _63  and  _64
REMARK   25  A    between atoms: _63  and  _66
REMARK   26  A    between atoms: _66  and  _67
REMARK   27  A    between atoms: _70  and  _72
REMARK   28  A    between atoms: _72  and  _73
REMARK   29  A    between atoms: _76  and  _78
REMARK   30  A    between atoms: _78  and  _79
REMARK   31  A    between atoms: _78  and  _81
REMARK   32  A    between atoms: _81  and  _82
REMARK   33  A    between atoms: _87  and  _88
REMARK   34  A    between atoms: _90  and  _92
REMARK   35  A    between atoms: _92  and  _93
REMARK   36  A    between atoms: _92  and  _95
REMARK   37  A    between atoms: _95  and  _96
REMARK   38  A    between atoms: _96  and  _97
REMARK   39  A    between atoms: _99  and  _101
REMARK   40  A    between atoms: _101  and  _102
REMARK   41  A    between atoms: _101  and  _104
REMARK   42  A    between atoms: _104  and  _105
REMARK   43  A    between atoms: _105  and  _106
REMARK   44  A    between atoms: _109  and  _111
REMARK   45  A    between atoms: _111  and  _112
REMARK   46  A    between atoms: _111  and  _114
REMARK   47  A    between atoms: _117  and  _119
REMARK   48  A    between atoms: _119  and  _120
REMARK   49  A    between atoms: _122  and  _124
REMARK   50  A    between atoms: _124  and  _125
REMARK   51  A    between atoms: _124  and  _127
REMARK   52  A    between atoms: _130  and  _132
REMARK   53  A    between atoms: _132  and  _133
REMARK   54  A    between atoms: _132  and  _135
REMARK   55  A    between atoms: _135  and  _136
REMARK   56  A    between atoms: _142  and  _144
REMARK   57  A    between atoms: _144  and  _145
REMARK   58  A    between atoms: _144  and  _147
REMARK   59  A    between atoms: _150  and  _152
REMARK   60  A    between atoms: _152  and  _153
REMARK   61  A    between atoms: _152  and  _155
REMARK   62  A    between atoms: _155  and  _156
REMARK   63  A    between atoms: _161  and  _162
REMARK   64  A    between atoms: _164  and  _166
REMARK   65  A    between atoms: _166  and  _167
REMARK   66  A    between atoms: _166  and  _169
REMARK   67  A    between atoms: _169  and  _170
REMARK   68  A    between atoms: _170  and  _171
REMARK   69  A    between atoms: _173  and  _175
REMARK   70  A    between atoms: _175  and  _176
REMARK   71  A    between atoms: _175  and  _178
REMARK   72  A    between atoms: _178  and  _179
REMARK   73  A    between atoms: _179  and  _180
REMARK   74  A    between atoms: _183  and  _185
REMARK   75  A    between atoms: _185  and  _186
REMARK   76  A    between atoms: _185  and  _188
REMARK   77  A    between atoms: _188  and  _189
REMARK   78  A    between atoms: _189  and  _190
REMARK   79  A    between atoms: _193  and  _195
REMARK   80  A    between atoms: _195  and  _196
REMARK   81  A    between atoms: _195  and  _198
REMARK   82  A    between atoms: _198  and  _199
REMARK   83  A    between atoms: _204  and  _205
REMARK   84  A    between atoms: _207  and  _209
REMARK   85  A    between atoms: _209  and  _210
REMARK   86  A    between atoms: _209  and  _212
REMARK   87  A    between atoms: _212  and  _213
REMARK   88  A    between atoms: _213  and  _214
REMARK   89  A    between atoms: _214  and  _215
REMARK   90  A    between atoms: _224  and  _226
REMARK   91  A    between atoms: _226  and  _227
REMARK   92  A    between atoms: _226  and  _229
REMARK   93  A    between atoms: _229  and  _230
REMARK   94  A    between atoms: _230  and  _231
REMARK   95  A    between atoms: _234  and  _236
REMARK   96  A    between atoms: _236  and  _237
REMARK   97  A    between atoms: _236  and  _239
REMARK   98  A    between atoms: _239  and  _240
REMARK   99  A    between atoms: _243  and  _245
REMARK  100  A    between atoms: _245  and  _246
REMARK  101  A    between atoms: _245  and  _248
REMARK  102  A    between atoms: _248  and  _249
REMARK  103  A    between atoms: _249  and  _250
REMARK  104  A    between atoms: _255  and  _257
REMARK  105  A    between atoms: _257  and  _258
REMARK  106  A    between atoms: _257  and  _260
REMARK  107  A    between atoms: _260  and  _261
REMARK  108  A    between atoms: _261  and  _262
REMARK  109  A    between atoms: _262  and  _263
REMARK  110  A    between atoms: _263  and  _264
REMARK  111  A    between atoms: _268  and  _270
REMARK  112  A    between atoms: _270  and  _271
REMARK  113  A    between atoms: _274  and  _276
REMARK  114  A    between atoms: _276  and  _277
REMARK  115  A    between atoms: _279  and  _281
REMARK  116  A    between atoms: _281  and  _282
REMARK  117  A    between atoms: _281  and  _284
REMARK  118  A    between atoms: _284  and  _285
REMARK  119  A    between atoms: _290  and  _292
REMARK  120  A    between atoms: _292  and  _293
REMARK  121  A    between atoms: _292  and  _295
REMARK  122  A    between atoms: _295  and  _296
REMARK  123  A    between atoms: _296  and  _297
REMARK  124  A    between atoms: _300  and  _302
REMARK  125  A    between atoms: _302  and  _303
REMARK  126  A    between atoms: _302  and  _305
REMARK  127  A    between atoms: _305  and  _306
REMARK  128  A    between atoms: _306  and  _307
REMARK  129  A    between atoms: _312  and  _314
REMARK  130  A    between atoms: _314  and  _315
REMARK  131  A    between atoms: _314  and  _317
REMARK  132  A    between atoms: _317  and  _318
REMARK  133  A    between atoms: _320  and  _322
REMARK  134  A    between atoms: _322  and  _323
REMARK  135  A    between atoms: _322  and  _325
REMARK  136  A    between atoms: _325  and  _326
REMARK  137  A    between atoms: _332  and  _334
REMARK  138  A    between atoms: _334  and  _335
REMARK  139  A    between atoms: _334  and  _337
REMARK  140  A    between atoms: _340  and  _342
REMARK  141  A    between atoms: _342  and  _343
REMARK  142  A    between atoms: _342  and  _345
REMARK  143  A    between atoms: _345  and  _346
REMARK  144  A    between atoms: _349  and  _351
REMARK  145  A    between atoms: _351  and  _352
REMARK  146  A    between atoms: _351  and  _354
REMARK  147  A    between atoms: _354  and  _355
REMARK  148  A    between atoms: _358  and  _360
REMARK  149  A    between atoms: _360  and  _361
REMARK  150  A    between atoms: _360  and  _363
REMARK  151  A    between atoms: _363  and  _364
REMARK  152  A    between atoms: _367  and  _369
REMARK  153  A    between atoms: _369  and  _370
REMARK  154  A    between atoms: _369  and  _372
REMARK  155  A    between atoms: _372  and  _373
REMARK  156  A    between atoms: _376  and  _378
REMARK  157  A    between atoms: _378  and  _379
REMARK  158  A    between atoms: _378  and  _381
REMARK  159  A    between atoms: _381  and  _382
REMARK  160  A    between atoms: _387  and  _388
REMARK  161  A    between atoms: _390  and  _392
REMARK  162  A    between atoms: _392  and  _393
REMARK  163  A    between atoms: _392  and  _395
REMARK  164  A    between atoms: _395  and  _396
REMARK  165  A    between atoms: _401  and  _402
REMARK  166  A    between atoms: _404  and  _406
REMARK  167  A    between atoms: _406  and  _407
REMARK  168  A    between atoms: _406  and  _409
REMARK  169  A    between atoms: _409  and  _410
REMARK  170  A    between atoms: _413  and  _415
REMARK  171  A    between atoms: _415  and  _416
REMARK  172  A    between atoms: _415  and  _418
REMARK  173  A    between atoms: _418  and  _419
REMARK  174  A    between atoms: _422  and  _424
REMARK  175  A    between atoms: _424  and  _425
REMARK  176  A    between atoms: _424  and  _427
REMARK  177  A    between atoms: _427  and  _428
REMARK  178  A    between atoms: _428  and  _429
REMARK  179  A    between atoms: _434  and  _436
REMARK  180  A    between atoms: _436  and  _437
REMARK  181  A    between atoms: _436  and  _439
REMARK  182  A    between atoms: _442  and  _444
REMARK  183  A    between atoms: _444  and  _445
REMARK  184  A    between atoms: _444  and  _447
REMARK  185  A    between atoms: _447  and  _448
REMARK  186  A    between atoms: _451  and  _453
REMARK  187  A    between atoms: _453  and  _454
REMARK  188  A    between atoms: _453  and  _456
REMARK  189  A    between atoms: _456  and  _457
REMARK  190  A    between atoms: _459  and  _461
REMARK  191  A    between atoms: _461  and  _462
REMARK  192  A    between atoms: _464  and  _466
REMARK  193  A    between atoms: _466  and  _467
REMARK  194  A    between atoms: _466  and  _469
REMARK  195  A    between atoms: _469  and  _470
REMARK  196  A    between atoms: _470  and  _802
REMARK  197  A    between atoms: _471  and  _473
REMARK  198  A    between atoms: _473  and  _474
REMARK  199  A    between atoms: _473  and  _476
REMARK  200  A    between atoms: _476  and  _477
REMARK  201  A    between atoms: _482  and  _483
REMARK  202  A    between atoms: _485  and  _487
REMARK  203  A    between atoms: _487  and  _488
REMARK  204  A    between atoms: _487  and  _490
REMARK  205  A    between atoms: _490  and  _491
REMARK  206  A    between atoms: _491  and  _492
REMARK  207  A    between atoms: _497  and  _499
REMARK  208  A    between atoms: _499  and  _500
REMARK  209  A    between atoms: _499  and  _502
REMARK  210  A    between atoms: _502  and  _503
REMARK  211  A    between atoms: _503  and  _504
REMARK  212  A    between atoms: _509  and  _511
REMARK  213  A    between atoms: _511  and  _512
REMARK  214  A    between atoms: _511  and  _514
REMARK  215  A    between atoms: _514  and  _515
REMARK  216  A    between atoms: _520  and  _521
REMARK  217  A    between atoms: _523  and  _525
REMARK  218  A    between atoms: _525  and  _526
REMARK  219  A    between atoms: _529  and  _531
REMARK  220  A    between atoms: _531  and  _532
REMARK  221  A    between atoms: _531  and  _534
REMARK  222  A    between atoms: _534  and  _535
REMARK  223  A    between atoms: _540  and  _541
REMARK  224  A    between atoms: _543  and  _545
REMARK  225  A    between atoms: _545  and  _546
REMARK  226  A    between atoms: _545  and  _548
REMARK  227  A    between atoms: _548  and  _549
REMARK  228  A    between atoms: _552  and  _554
REMARK  229  A    between atoms: _554  and  _555
REMARK  230  A    between atoms: _554  and  _557
REMARK  231  A    between atoms: _559  and  _561
REMARK  232  A    between atoms: _561  and  _562
REMARK  233  A    between atoms: _561  and  _564
REMARK  234  A    between atoms: _564  and  _565
REMARK  235  A    between atoms: _568  and  _570
REMARK  236  A    between atoms: _570  and  _571
REMARK  237  A    between atoms: _570  and  _573
REMARK  238  A    between atoms: _573  and  _574
REMARK  239  A    between atoms: _579  and  _580
REMARK  240  A    between atoms: _582  and  _584
REMARK  241  A    between atoms: _584  and  _585
REMARK  242  A    between atoms: _584  and  _587
REMARK  243  A    between atoms: _587  and  _588
REMARK  244  A    between atoms: _591  and  _593
REMARK  245  A    between atoms: _593  and  _594
REMARK  246  A    between atoms: _593  and  _596
REMARK  247  A    between atoms: _596  and  _597
REMARK  248  A    between atoms: _607  and  _609
REMARK  249  A    between atoms: _609  and  _610
REMARK  250  A    between atoms: _613  and  _615
REMARK  251  A    between atoms: _615  and  _616
REMARK  252  A    between atoms: _619  and  _621
REMARK  253  A    between atoms: _621  and  _622
REMARK  254  A    between atoms: _621  and  _624
REMARK  255  A    between atoms: _624  and  _625
REMARK  256  A    between atoms: _628  and  _630
REMARK  257  A    between atoms: _630  and  _631
REMARK  258  A    between atoms: _630  and  _633
REMARK  259  A    between atoms: _633  and  _634
REMARK  260  A    between atoms: _637  and  _639
REMARK  261  A    between atoms: _639  and  _640
REMARK  262  A    between atoms: _639  and  _642
REMARK  263  A    between atoms: _642  and  _643
REMARK  264  A    between atoms: _646  and  _648
REMARK  265  A    between atoms: _648  and  _649
REMARK  266  A    between atoms: _648  and  _651
REMARK  267  A    between atoms: _651  and  _652
REMARK  268  A    between atoms: _652  and  _653
REMARK  269  A    between atoms: _653  and  _654
REMARK  270  A    between atoms: _654  and  _655
REMARK  271  A    between atoms: _659  and  _661
REMARK  272  A    between atoms: _661  and  _662
REMARK  273  A    between atoms: _661  and  _664
REMARK  274  A    between atoms: _664  and  _665
REMARK  275  A    between atoms: _670  and  _672
REMARK  276  A    between atoms: _672  and  _673
REMARK  277  A    between atoms: _672  and  _675
REMARK  278  A    between atoms: _675  and  _676
REMARK  279  A    between atoms: _676  and  _677
REMARK  280  A    between atoms: _677  and  _678
REMARK  281  A    between atoms: _678  and  _679
REMARK  282  A    between atoms: _683  and  _685
REMARK  283  A    between atoms: _685  and  _686
REMARK  284  A    between atoms: _685  and  _688
REMARK  285  A    between atoms: _688  and  _689
REMARK  286  A    between atoms: _699  and  _701
REMARK  287  A    between atoms: _701  and  _702
REMARK  288  A    between atoms: _701  and  _704
REMARK  289  A    between atoms: _704  and  _705
REMARK  290  A    between atoms: _705  and  _706
REMARK  291  A    between atoms: _711  and  _713
REMARK  292  A    between atoms: _713  and  _714
REMARK  293  A    between atoms: _717  and  _719
REMARK  294  A    between atoms: _719  and  _720
REMARK  295  A    between atoms: _722  and  _724
REMARK  296  A    between atoms: _724  and  _725
REMARK  297  A    between atoms: _724  and  _727
REMARK  298  A    between atoms: _727  and  _728
REMARK  299  A    between atoms: _728  and  _729
REMARK  300  A    between atoms: _732  and  _734
REMARK  301  A    between atoms: _734  and  _735
REMARK  302  A    between atoms: _738  and  _740
REMARK  303  A    between atoms: _740  and  _741
REMARK  304  A    between atoms: _740  and  _743
REMARK  305  A    between atoms: _743  and  _744
REMARK  306  A    between atoms: _744  and  _745
REMARK  307  A    between atoms: _745  and  _746
REMARK  308  A    between atoms: _755  and  _757
REMARK  309  A    between atoms: _757  and  _758
REMARK  310  A    between atoms: _757  and  _760
REMARK  311  A    between atoms: _760  and  _761
REMARK  312  A    between atoms: _764  and  _766
REMARK  313  A    between atoms: _766  and  _767
REMARK  314  A    between atoms: _766  and  _769
REMARK  315  A    between atoms: _769  and  _770
REMARK  316  A    between atoms: _775  and  _776
REMARK  317  A    between atoms: _778  and  _780
REMARK  318  A    between atoms: _780  and  _781
REMARK  319  A    between atoms: _780  and  _783
REMARK  320  A    between atoms: _783  and  _784
REMARK  321  A    between atoms: _787  and  _789
REMARK  322  A    between atoms: _789  and  _790
REMARK  323  A    between atoms: _789  and  _792
REMARK  324  A    between atoms: _792  and  _793
REMARK  325  A    between atoms: _796  and  _798
REMARK  326  A    between atoms: _798  and  _799
REMARK  327  A    between atoms: _798  and  _801
REMARK  328  A    between atoms: _801  and  _802
REMARK  329  A    between atoms: _803  and  _805
REMARK  330  A    between atoms: _805  and  _806
REMARK  331  A    between atoms: _805  and  _808
REMARK  332  A    between atoms: _811  and  _813
REMARK  333  A    between atoms: _813  and  _814
REMARK  334  A    between atoms: _813  and  _816
REMARK  335  A    between atoms: _816  and  _817
REMARK  336  A    between atoms: _817  and  _818
REMARK  337  A    between atoms: _821  and  _823
REMARK  338  A    between atoms: _823  and  _824
REMARK  339  A    between atoms: _823  and  _826
REMARK  340  A    between atoms: _826  and  _827
REMARK  341  A    between atoms: _837  and  _839
REMARK  342  A    between atoms: _839  and  _840
REMARK  343  A    between atoms: _839  and  _842
REMARK  344  A    between atoms: _842  and  _843
REMARK  345  A    between atoms: _846  and  _848
REMARK  346  A    between atoms: _848  and  _849
REMARK  347  A    between atoms: _848  and  _851
REMARK  348  A    between atoms: _851  and  _852
REMARK  349  A    between atoms: _852  and  _853
REMARK  350  A    between atoms: _853  and  _854
REMARK  351  A    between atoms: _863  and  _865
REMARK  352  A    between atoms: _865  and  _866
REMARK  353  A    between atoms: _865  and  _868
REMARK  354  A    between atoms: _868  and  _869
REMARK  355  A    between atoms: _874  and  _875
REMARK                            x       y       z     vdW  Elec       q    Type
REMARK                         _______ _______ _______ _____ _____    ______ ____
ROOT
ATOM      1  O   HOH     1      44.306  30.510 -17.491  0.00  0.00    +0.000 OA
ENDROOT
TORSDOF 0
REMARK  Name = ../refined-set-2016/4pge/4pge_pocket.pdb
REMARK  355 active torsions:
REMARK  status: ('A' for Active; 'I' for Inactive)
REMARK    1  A    between atoms: _1  and  _3
REMARK    2  A    between atoms: _3  and  _4
REMARK    3  A    between atoms: _3  and  _6
REMARK    4  A    between atoms: _6  and  _7
REMARK    5  A    between atoms: _10  and  _12
REMARK    6  A    between atoms: _12  and  _13
REMARK    7  A    between atoms: _12  and  _15
REMARK    8  A    between atoms: _15  and  _16
REMARK    9  A    between atoms: _16  and  _17
REMARK   10  A    between atoms: _17  and  _18
REMARK   11  A    between atoms: _27  and  _29
REMARK   12  A    between atoms: _29  and  _30
REMARK   13  A    between atoms: _29  and  _32
REMARK   14  A    between atoms: _32  and  _33
REMARK   15  A    between atoms: _38  and  _39
REMARK   16  A    between atoms: _41  and  _43
REMARK   17  A    between atoms: _43  and  _44
REMARK   18  A    between atoms: _43  and  _46
REMARK   19  A    between atoms: _46  and  _47
REMARK   20  A    between atoms: _53  and  _55
REMARK   21  A    between atoms: _55  and  _56
REMARK   22  A    between atoms: _55  and  _58
REMARK   23  A    between atoms: _61  and  _63
REMARK   24  A    between atoms: _63  and  _64
REMARK   25  A    between atoms: _63  and  _66
REMARK   26  A    between atoms: _66  and  _67
REMARK   27  A    between atoms: _70  and  _72
REMARK   28  A    between atoms: _72  and  _73
REMARK   29  A    between atoms: _76  and  _78
REMARK   30  A    between atoms: _78  and  _79
REMARK   31  A    between atoms: _78  and  _81
REMARK   32  A    between atoms: _81  and  _82
REMARK   33  A    between atoms: _87  and  _88
REMARK   34  A    between atoms: _90  and  _92
REMARK   35  A    between atoms: _92  and  _93
REMARK   36  A    between atoms: _92  and  _95
REMARK   37  A    between atoms: _95  and  _96
REMARK   38  A    between atoms: _96  and  _97
REMARK   39  A    between atoms: _99  and  _101
REMARK   40  A    between atoms: _101  and  _102
REMARK   41  A    between atoms: _101  and  _104
REMARK   42  A    between atoms: _104  and  _105
REMARK   43  A    between atoms: _105  and  _106
REMARK   44  A    between atoms: _109  and  _111
REMARK   45  A    between atoms: _111  and  _112
REMARK   46  A    between atoms: _111  and  _114
REMARK   47  A    between atoms: _117  and  _119
REMARK   48  A    between atoms: _119  and  _120
REMARK   49  A    between atoms: _122  and  _124
REMARK   50  A    between atoms: _124  and  _125
REMARK   51  A    between atoms: _124  and  _127
REMARK   52  A    between atoms: _130  and  _132
REMARK   53  A    between atoms: _132  and  _133
REMARK   54  A    between atoms: _132  and  _135
REMARK   55  A    between atoms: _135  and  _136
REMARK   56  A    between atoms: _142  and  _144
REMARK   57  A    between atoms: _144  and  _145
REMARK   58  A    between atoms: _144  and  _147
REMARK   59  A    between atoms: _150  and  _152
REMARK   60  A    between atoms: _152  and  _153
REMARK   61  A    between atoms: _152  and  _155
REMARK   62  A    between atoms: _155  and  _156
REMARK   63  A    between atoms: _161  and  _162
REMARK   64  A    between atoms: _164  and  _166
REMARK   65  A    between atoms: _166  and  _167
REMARK   66  A    between atoms: _166  and  _169
REMARK   67  A    between atoms: _169  and  _170
REMARK   68  A    between atoms: _170  and  _171
REMARK   69  A    between atoms: _173  and  _175
REMARK   70  A    between atoms: _175  and  _176
REMARK   71  A    between atoms: _175  and  _178
REMARK   72  A    between atoms: _178  and  _179
REMARK   73  A    between atoms: _179  and  _180
REMARK   74  A    between atoms: _183  and  _185
REMARK   75  A    between atoms: _185  and  _186
REMARK   76  A    between atoms: _185  and  _188
REMARK   77  A    between atoms: _188  and  _189
REMARK   78  A    between atoms: _189  and  _190
REMARK   79  A    between atoms: _193  and  _195
REMARK   80  A    between atoms: _195  and  _196
REMARK   81  A    between atoms: _195  and  _198
REMARK   82  A    between atoms: _198  and  _199
REMARK   83  A    between atoms: _204  and  _205
REMARK   84  A    between atoms: _207  and  _209
REMARK   85  A    between atoms: _209  and  _210
REMARK   86  A    between atoms: _209  and  _212
REMARK   87  A    between atoms: _212  and  _213
REMARK   88  A    between atoms: _213  and  _214
REMARK   89  A    between atoms: _214  and  _215
REMARK   90  A    between atoms: _224  and  _226
REMARK   91  A    between atoms: _226  and  _227
REMARK   92  A    between atoms: _226  and  _229
REMARK   93  A    between atoms: _229  and  _230
REMARK   94  A    between atoms: _230  and  _231
REMARK   95  A    between atoms: _234  and  _236
REMARK   96  A    between atoms: _236  and  _237
REMARK   97  A    between atoms: _236  and  _239
REMARK   98  A    between atoms: _239  and  _240
REMARK   99  A    between atoms: _243  and  _245
REMARK  100  A    between atoms: _245  and  _246
REMARK  101  A    between atoms: _245  and  _248
REMARK  102  A    between atoms: _248  and  _249
REMARK  103  A    between atoms: _249  and  _250
REMARK  104  A    between atoms: _255  and  _257
REMARK  105  A    between atoms: _257  and  _258
REMARK  106  A    between atoms: _257  and  _260
REMARK  107  A    between atoms: _260  and  _261
REMARK  108  A    between atoms: _261  and  _262
REMARK  109  A    between atoms: _262  and  _263
REMARK  110  A    between atoms: _263  and  _264
REMARK  111  A    between atoms: _268  and  _270
REMARK  112  A    between atoms: _270  and  _271
REMARK  113  A    between atoms: _274  and  _276
REMARK  114  A    between atoms: _276  and  _277
REMARK  115  A    between atoms: _279  and  _281
REMARK  116  A    between atoms: _281  and  _282
REMARK  117  A    between atoms: _281  and  _284
REMARK  118  A    between atoms: _284  and  _285
REMARK  119  A    between atoms: _290  and  _292
REMARK  120  A    between atoms: _292  and  _293
REMARK  121  A    between atoms: _292  and  _295
REMARK  122  A    between atoms: _295  and  _296
REMARK  123  A    between atoms: _296  and  _297
REMARK  124  A    between atoms: _300  and  _302
REMARK  125  A    between atoms: _302  and  _303
REMARK  126  A    between atoms: _302  and  _305
REMARK  127  A    between atoms: _305  and  _306
REMARK  128  A    between atoms: _306  and  _307
REMARK  129  A    between atoms: _312  and  _314
REMARK  130  A    between atoms: _314  and  _315
REMARK  131  A    between atoms: _314  and  _317
REMARK  132  A    between atoms: _317  and  _318
REMARK  133  A    between atoms: _320  and  _322
REMARK  134  A    between atoms: _322  and  _323
REMARK  135  A    between atoms: _322  and  _325
REMARK  136  A    between atoms: _325  and  _326
REMARK  137  A    between atoms: _332  and  _334
REMARK  138  A    between atoms: _334  and  _335
REMARK  139  A    between atoms: _334  and  _337
REMARK  140  A    between atoms: _340  and  _342
REMARK  141  A    between atoms: _342  and  _343
REMARK  142  A    between atoms: _342  and  _345
REMARK  143  A    between atoms: _345  and  _346
REMARK  144  A    between atoms: _349  and  _351
REMARK  145  A    between atoms: _351  and  _352
REMARK  146  A    between atoms: _351  and  _354
REMARK  147  A    between atoms: _354  and  _355
REMARK  148  A    between atoms: _358  and  _360
REMARK  149  A    between atoms: _360  and  _361
REMARK  150  A    between atoms: _360  and  _363
REMARK  151  A    between atoms: _363  and  _364
REMARK  152  A    between atoms: _367  and  _369
REMARK  153  A    between atoms: _369  and  _370
REMARK  154  A    between atoms: _369  and  _372
REMARK  155  A    between atoms: _372  and  _373
REMARK  156  A    between atoms: _376  and  _378
REMARK  157  A    between atoms: _378  and  _379
REMARK  158  A    between atoms: _378  and  _381
REMARK  159  A    between atoms: _381  and  _382
REMARK  160  A    between atoms: _387  and  _388
REMARK  161  A    between atoms: _390  and  _392
REMARK  162  A    between atoms: _392  and  _393
REMARK  163  A    between atoms: _392  and  _395
REMARK  164  A    between atoms: _395  and  _396
REMARK  165  A    between atoms: _401  and  _402
REMARK  166  A    between atoms: _404  and  _406
REMARK  167  A    between atoms: _406  and  _407
REMARK  168  A    between atoms: _406  and  _409
REMARK  169  A    between atoms: _409  and  _410
REMARK  170  A    between atoms: _413  and  _415
REMARK  171  A    between atoms: _415  and  _416
REMARK  172  A    between atoms: _415  and  _418
REMARK  173  A    between atoms: _418  and  _419
REMARK  174  A    between atoms: _422  and  _424
REMARK  175  A    between atoms: _424  and  _425
REMARK  176  A    between atoms: _424  and  _427
REMARK  177  A    between atoms: _427  and  _428
REMARK  178  A    between atoms: _428  and  _429
REMARK  179  A    between atoms: _434  and  _436
REMARK  180  A    between atoms: _436  and  _437
REMARK  181  A    between atoms: _436  and  _439
REMARK  182  A    between atoms: _442  and  _444
REMARK  183  A    between atoms: _444  and  _445
REMARK  184  A    between atoms: _444  and  _447
REMARK  185  A    between atoms: _447  and  _448
REMARK  186  A    between atoms: _451  and  _453
REMARK  187  A    between atoms: _453  and  _454
REMARK  188  A    between atoms: _453  and  _456
REMARK  189  A    between atoms: _456  and  _457
REMARK  190  A    between atoms: _459  and  _461
REMARK  191  A    between atoms: _461  and  _462
REMARK  192  A    between atoms: _464  and  _466
REMARK  193  A    between atoms: _466  and  _467
REMARK  194  A    between atoms: _466  and  _469
REMARK  195  A    between atoms: _469  and  _470
REMARK  196  A    between atoms: _470  and  _802
REMARK  197  A    between atoms: _471  and  _473
REMARK  198  A    between atoms: _473  and  _474
REMARK  199  A    between atoms: _473  and  _476
REMARK  200  A    between atoms: _476  and  _477
REMARK  201  A    between atoms: _482  and  _483
REMARK  202  A    between atoms: _485  and  _487
REMARK  203  A    between atoms: _487  and  _488
REMARK  204  A    between atoms: _487  and  _490
REMARK  205  A    between atoms: _490  and  _491
REMARK  206  A    between atoms: _491  and  _492
REMARK  207  A    between atoms: _497  and  _499
REMARK  208  A    between atoms: _499  and  _500
REMARK  209  A    between atoms: _499  and  _502
REMARK  210  A    between atoms: _502  and  _503
REMARK  211  A    between atoms: _503  and  _504
REMARK  212  A    between atoms: _509  and  _511
REMARK  213  A    between atoms: _511  and  _512
REMARK  214  A    between atoms: _511  and  _514
REMARK  215  A    between atoms: _514  and  _515
REMARK  216  A    between atoms: _520  and  _521
REMARK  217  A    between atoms: _523  and  _525
REMARK  218  A    between atoms: _525  and  _526
REMARK  219  A    between atoms: _529  and  _531
REMARK  220  A    between atoms: _531  and  _532
REMARK  221  A    between atoms: _531  and  _534
REMARK  222  A    between atoms: _534  and  _535
REMARK  223  A    between atoms: _540  and  _541
REMARK  224  A    between atoms: _543  and  _545
REMARK  225  A    between atoms: _545  and  _546
REMARK  226  A    between atoms: _545  and  _548
REMARK  227  A    between atoms: _548  and  _549
REMARK  228  A    between atoms: _552  and  _554
REMARK  229  A    between atoms: _554  and  _555
REMARK  230  A    between atoms: _554  and  _557
REMARK  231  A    between atoms: _559  and  _561
REMARK  232  A    between atoms: _561  and  _562
REMARK  233  A    between atoms: _561  and  _564
REMARK  234  A    between atoms: _564  and  _565
REMARK  235  A    between atoms: _568  and  _570
REMARK  236  A    between atoms: _570  and  _571
REMARK  237  A    between atoms: _570  and  _573
REMARK  238  A    between atoms: _573  and  _574
REMARK  239  A    between atoms: _579  and  _580
REMARK  240  A    between atoms: _582  and  _584
REMARK  241  A    between atoms: _584  and  _585
REMARK  242  A    between atoms: _584  and  _587
REMARK  243  A    between atoms: _587  and  _588
REMARK  244  A    between atoms: _591  and  _593
REMARK  245  A    between atoms: _593  and  _594
REMARK  246  A    between atoms: _593  and  _596
REMARK  247  A    between atoms: _596  and  _597
REMARK  248  A    between atoms: _607  and  _609
REMARK  249  A    between atoms: _609  and  _610
REMARK  250  A    between atoms: _613  and  _615
REMARK  251  A    between atoms: _615  and  _616
REMARK  252  A    between atoms: _619  and  _621
REMARK  253  A    between atoms: _621  and  _622
REMARK  254  A    between atoms: _621  and  _624
REMARK  255  A    between atoms: _624  and  _625
REMARK  256  A    between atoms: _628  and  _630
REMARK  257  A    between atoms: _630  and  _631
REMARK  258  A    between atoms: _630  and  _633
REMARK  259  A    between atoms: _633  and  _634
REMARK  260  A    between atoms: _637  and  _639
REMARK  261  A    between atoms: _639  and  _640
REMARK  262  A    between atoms: _639  and  _642
REMARK  263  A    between atoms: _642  and  _643
REMARK  264  A    between atoms: _646  and  _648
REMARK  265  A    between atoms: _648  and  _649
REMARK  266  A    between atoms: _648  and  _651
REMARK  267  A    between atoms: _651  and  _652
REMARK  268  A    between atoms: _652  and  _653
REMARK  269  A    between atoms: _653  and  _654
REMARK  270  A    between atoms: _654  and  _655
REMARK  271  A    between atoms: _659  and  _661
REMARK  272  A    between atoms: _661  and  _662
REMARK  273  A    between atoms: _661  and  _664
REMARK  274  A    between atoms: _664  and  _665
REMARK  275  A    between atoms: _670  and  _672
REMARK  276  A    between atoms: _672  and  _673
REMARK  277  A    between atoms: _672  and  _675
REMARK  278  A    between atoms: _675  and  _676
REMARK  279  A    between atoms: _676  and  _677
REMARK  280  A    between atoms: _677  and  _678
REMARK  281  A    between atoms: _678  and  _679
REMARK  282  A    between atoms: _683  and  _685
REMARK  283  A    between atoms: _685  and  _686
REMARK  284  A    between atoms: _685  and  _688
REMARK  285  A    between atoms: _688  and  _689
REMARK  286  A    between atoms: _699  and  _701
REMARK  287  A    between atoms: _701  and  _702
REMARK  288  A    between atoms: _701  and  _704
REMARK  289  A    between atoms: _704  and  _705
REMARK  290  A    between atoms: _705  and  _706
REMARK  291  A    between atoms: _711  and  _713
REMARK  292  A    between atoms: _713  and  _714
REMARK  293  A    between atoms: _717  and  _719
REMARK  294  A    between atoms: _719  and  _720
REMARK  295  A    between atoms: _722  and  _724
REMARK  296  A    between atoms: _724  and  _725
REMARK  297  A    between atoms: _724  and  _727
REMARK  298  A    between atoms: _727  and  _728
REMARK  299  A    between atoms: _728  and  _729
REMARK  300  A    between atoms: _732  and  _734
REMARK  301  A    between atoms: _734  and  _735
REMARK  302  A    between atoms: _738  and  _740
REMARK  303  A    between atoms: _740  and  _741
REMARK  304  A    between atoms: _740  and  _743
REMARK  305  A    between atoms: _743  and  _744
REMARK  306  A    between atoms: _744  and  _745
REMARK  307  A    between atoms: _745  and  _746
REMARK  308  A    between atoms: _755  and  _757
REMARK  309  A    between atoms: _757  and  _758
REMARK  310  A    between atoms: _757  and  _760
REMARK  311  A    between atoms: _760  and  _761
REMARK  312  A    between atoms: _764  and  _766
REMARK  313  A    between atoms: _766  and  _767
REMARK  314  A    between atoms: _766  and  _769
REMARK  315  A    between atoms: _769  and  _770
REMARK  316  A    between atoms: _775  and  _776
REMARK  317  A    between atoms: _778  and  _780
REMARK  318  A    between atoms: _780  and  _781
REMARK  319  A    between atoms: _780  and  _783
REMARK  320  A    between atoms: _783  and  _784
REMARK  321  A    between atoms: _787  and  _789
REMARK  322  A    between atoms: _789  and  _790
REMARK  323  A    between atoms: _789  and  _792
REMARK  324  A    between atoms: _792  and  _793
REMARK  325  A    between atoms: _796  and  _798
REMARK  326  A    between atoms: _798  and  _799
REMARK  327  A    between atoms: _798  and  _801
REMARK  328  A    between atoms: _801  and  _802
REMARK  329  A    between atoms: _803  and  _805
REMARK  330  A    between atoms: _805  and  _806
REMARK  331  A    between atoms: _805  and  _808
REMARK  332  A    between atoms: _811  and  _813
REMARK  333  A    between atoms: _813  and  _814
REMARK  334  A    between atoms: _813  and  _816
REMARK  335  A    between atoms: _816  and  _817
REMARK  336  A    between atoms: _817  and  _818
REMARK  337  A    between atoms: _821  and  _823
REMARK  338  A    between atoms: _823  and  _824
REMARK  339  A    between atoms: _823  and  _826
REMARK  340  A    between atoms: _826  and  _827
REMARK  341  A    between atoms: _837  and  _839
REMARK  342  A    between atoms: _839  and  _840
REMARK  343  A    between atoms: _839  and  _842
REMARK  344  A    between atoms: _842  and  _843
REMARK  345  A    between atoms: _846  and  _848
REMARK  346  A    between atoms: _848  and  _849
REMARK  347  A    between atoms: _848  and  _851
REMARK  348  A    between atoms: _851  and  _852
REMARK  349  A    between atoms: _852  and  _853
REMARK  350  A    between atoms: _853  and  _854
REMARK  351  A    between atoms: _863  and  _865
REMARK  352  A    between atoms: _865  and  _866
REMARK  353  A    between atoms: _865  and  _868
REMARK  354  A    between atoms: _868  and  _869
REMARK  355  A    between atoms: _874  and  _875
REMARK                            x       y       z     vdW  Elec       q    Type
REMARK                         _______ _______ _______ _____ _____    ______ ____
ROOT
ATOM      1  O   HOH     1      45.896  28.566 -18.644  0.00  0.00    +0.000 OA
ENDROOT
TORSDOF 0
REMARK  Name = ../refined-set-2016/4pge/4pge_pocket.pdb
REMARK  355 active torsions:
REMARK  status: ('A' for Active; 'I' for Inactive)
REMARK    1  A    between atoms: _1  and  _3
REMARK    2  A    between atoms: _3  and  _4
REMARK    3  A    between atoms: _3  and  _6
REMARK    4  A    between atoms: _6  and  _7
REMARK    5  A    between atoms: _10  and  _12
REMARK    6  A    between atoms: _12  and  _13
REMARK    7  A    between atoms: _12  and  _15
REMARK    8  A    between atoms: _15  and  _16
REMARK    9  A    between atoms: _16  and  _17
REMARK   10  A    between atoms: _17  and  _18
REMARK   11  A    between atoms: _27  and  _29
REMARK   12  A    between atoms: _29  and  _30
REMARK   13  A    between atoms: _29  and  _32
REMARK   14  A    between atoms: _32  and  _33
REMARK   15  A    between atoms: _38  and  _39
REMARK   16  A    between atoms: _41  and  _43
REMARK   17  A    between atoms: _43  and  _44
REMARK   18  A    between atoms: _43  and  _46
REMARK   19  A    between atoms: _46  and  _47
REMARK   20  A    between atoms: _53  and  _55
REMARK   21  A    between atoms: _55  and  _56
REMARK   22  A    between atoms: _55  and  _58
REMARK   23  A    between atoms: _61  and  _63
REMARK   24  A    between atoms: _63  and  _64
REMARK   25  A    between atoms: _63  and  _66
REMARK   26  A    between atoms: _66  and  _67
REMARK   27  A    between atoms: _70  and  _72
REMARK   28  A    between atoms: _72  and  _73
REMARK   29  A    between atoms: _76  and  _78
REMARK   30  A    between atoms: _78  and  _79
REMARK   31  A    between atoms: _78  and  _81
REMARK   32  A    between atoms: _81  and  _82
REMARK   33  A    between atoms: _87  and  _88
REMARK   34  A    between atoms: _90  and  _92
REMARK   35  A    between atoms: _92  and  _93
REMARK   36  A    between atoms: _92  and  _95
REMARK   37  A    between atoms: _95  and  _96
REMARK   38  A    between atoms: _96  and  _97
REMARK   39  A    between atoms: _99  and  _101
REMARK   40  A    between atoms: _101  and  _102
REMARK   41  A    between atoms: _101  and  _104
REMARK   42  A    between atoms: _104  and  _105
REMARK   43  A    between atoms: _105  and  _106
REMARK   44  A    between atoms: _109  and  _111
REMARK   45  A    between atoms: _111  and  _112
REMARK   46  A    between atoms: _111  and  _114
REMARK   47  A    between atoms: _117  and  _119
REMARK   48  A    between atoms: _119  and  _120
REMARK   49  A    between atoms: _122  and  _124
REMARK   50  A    between atoms: _124  and  _125
REMARK   51  A    between atoms: _124  and  _127
REMARK   52  A    between atoms: _130  and  _132
REMARK   53  A    between atoms: _132  and  _133
REMARK   54  A    between atoms: _132  and  _135
REMARK   55  A    between atoms: _135  and  _136
REMARK   56  A    between atoms: _142  and  _144
REMARK   57  A    between atoms: _144  and  _145
REMARK   58  A    between atoms: _144  and  _147
REMARK   59  A    between atoms: _150  and  _152
REMARK   60  A    between atoms: _152  and  _153
REMARK   61  A    between atoms: _152  and  _155
REMARK   62  A    between atoms: _155  and  _156
REMARK   63  A    between atoms: _161  and  _162
REMARK   64  A    between atoms: _164  and  _166
REMARK   65  A    between atoms: _166  and  _167
REMARK   66  A    between atoms: _166  and  _169
REMARK   67  A    between atoms: _169  and  _170
REMARK   68  A    between atoms: _170  and  _171
REMARK   69  A    between atoms: _173  and  _175
REMARK   70  A    between atoms: _175  and  _176
REMARK   71  A    between atoms: _175  and  _178
REMARK   72  A    between atoms: _178  and  _179
REMARK   73  A    between atoms: _179  and  _180
REMARK   74  A    between atoms: _183  and  _185
REMARK   75  A    between atoms: _185  and  _186
REMARK   76  A    between atoms: _185  and  _188
REMARK   77  A    between atoms: _188  and  _189
REMARK   78  A    between atoms: _189  and  _190
REMARK   79  A    between atoms: _193  and  _195
REMARK   80  A    between atoms: _195  and  _196
REMARK   81  A    between atoms: _195  and  _198
REMARK   82  A    between atoms: _198  and  _199
REMARK   83  A    between atoms: _204  and  _205
REMARK   84  A    between atoms: _207  and  _209
REMARK   85  A    between atoms: _209  and  _210
REMARK   86  A    between atoms: _209  and  _212
REMARK   87  A    between atoms: _212  and  _213
REMARK   88  A    between atoms: _213  and  _214
REMARK   89  A    between atoms: _214  and  _215
REMARK   90  A    between atoms: _224  and  _226
REMARK   91  A    between atoms: _226  and  _227
REMARK   92  A    between atoms: _226  and  _229
REMARK   93  A    between atoms: _229  and  _230
REMARK   94  A    between atoms: _230  and  _231
REMARK   95  A    between atoms: _234  and  _236
REMARK   96  A    between atoms: _236  and  _237
REMARK   97  A    between atoms: _236  and  _239
REMARK   98  A    between atoms: _239  and  _240
REMARK   99  A    between atoms: _243  and  _245
REMARK  100  A    between atoms: _245  and  _246
REMARK  101  A    between atoms: _245  and  _248
REMARK  102  A    between atoms: _248  and  _249
REMARK  103  A    between atoms: _249  and  _250
REMARK  104  A    between atoms: _255  and  _257
REMARK  105  A    between atoms: _257  and  _258
REMARK  106  A    between atoms: _257  and  _260
REMARK  107  A    between atoms: _260  and  _261
REMARK  108  A    between atoms: _261  and  _262
REMARK  109  A    between atoms: _262  and  _263
REMARK  110  A    between atoms: _263  and  _264
REMARK  111  A    between atoms: _268  and  _270
REMARK  112  A    between atoms: _270  and  _271
REMARK  113  A    between atoms: _274  and  _276
REMARK  114  A    between atoms: _276  and  _277
REMARK  115  A    between atoms: _279  and  _281
REMARK  116  A    between atoms: _281  and  _282
REMARK  117  A    between atoms: _281  and  _284
REMARK  118  A    between atoms: _284  and  _285
REMARK  119  A    between atoms: _290  and  _292
REMARK  120  A    between atoms: _292  and  _293
REMARK  121  A    between atoms: _292  and  _295
REMARK  122  A    between atoms: _295  and  _296
REMARK  123  A    between atoms: _296  and  _297
REMARK  124  A    between atoms: _300  and  _302
REMARK  125  A    between atoms: _302  and  _303
REMARK  126  A    between atoms: _302  and  _305
REMARK  127  A    between atoms: _305  and  _306
REMARK  128  A    between atoms: _306  and  _307
REMARK  129  A    between atoms: _312  and  _314
REMARK  130  A    between atoms: _314  and  _315
REMARK  131  A    between atoms: _314  and  _317
REMARK  132  A    between atoms: _317  and  _318
REMARK  133  A    between atoms: _320  and  _322
REMARK  134  A    between atoms: _322  and  _323
REMARK  135  A    between atoms: _322  and  _325
REMARK  136  A    between atoms: _325  and  _326
REMARK  137  A    between atoms: _332  and  _334
REMARK  138  A    between atoms: _334  and  _335
REMARK  139  A    between atoms: _334  and  _337
REMARK  140  A    between atoms: _340  and  _342
REMARK  141  A    between atoms: _342  and  _343
REMARK  142  A    between atoms: _342  and  _345
REMARK  143  A    between atoms: _345  and  _346
REMARK  144  A    between atoms: _349  and  _351
REMARK  145  A    between atoms: _351  and  _352
REMARK  146  A    between atoms: _351  and  _354
REMARK  147  A    between atoms: _354  and  _355
REMARK  148  A    between atoms: _358  and  _360
REMARK  149  A    between atoms: _360  and  _361
REMARK  150  A    between atoms: _360  and  _363
REMARK  151  A    between atoms: _363  and  _364
REMARK  152  A    between atoms: _367  and  _369
REMARK  153  A    between atoms: _369  and  _370
REMARK  154  A    between atoms: _369  and  _372
REMARK  155  A    between atoms: _372  and  _373
REMARK  156  A    between atoms: _376  and  _378
REMARK  157  A    between atoms: _378  and  _379
REMARK  158  A    between atoms: _378  and  _381
REMARK  159  A    between atoms: _381  and  _382
REMARK  160  A    between atoms: _387  and  _388
REMARK  161  A    between atoms: _390  and  _392
REMARK  162  A    between atoms: _392  and  _393
REMARK  163  A    between atoms: _392  and  _395
REMARK  164  A    between atoms: _395  and  _396
REMARK  165  A    between atoms: _401  and  _402
REMARK  166  A    between atoms: _404  and  _406
REMARK  167  A    between atoms: _406  and  _407
REMARK  168  A    between atoms: _406  and  _409
REMARK  169  A    between atoms: _409  and  _410
REMARK  170  A    between atoms: _413  and  _415
REMARK  171  A    between atoms: _415  and  _416
REMARK  172  A    between atoms: _415  and  _418
REMARK  173  A    between atoms: _418  and  _419
REMARK  174  A    between atoms: _422  and  _424
REMARK  175  A    between atoms: _424  and  _425
REMARK  176  A    between atoms: _424  and  _427
REMARK  177  A    between atoms: _427  and  _428
REMARK  178  A    between atoms: _428  and  _429
REMARK  179  A    between atoms: _434  and  _436
REMARK  180  A    between atoms: _436  and  _437
REMARK  181  A    between atoms: _436  and  _439
REMARK  182  A    between atoms: _442  and  _444
REMARK  183  A    between atoms: _444  and  _445
REMARK  184  A    between atoms: _444  and  _447
REMARK  185  A    between atoms: _447  and  _448
REMARK  186  A    between atoms: _451  and  _453
REMARK  187  A    between atoms: _453  and  _454
REMARK  188  A    between atoms: _453  and  _456
REMARK  189  A    between atoms: _456  and  _457
REMARK  190  A    between atoms: _459  and  _461
REMARK  191  A    between atoms: _461  and  _462
REMARK  192  A    between atoms: _464  and  _466
REMARK  193  A    between atoms: _466  and  _467
REMARK  194  A    between atoms: _466  and  _469
REMARK  195  A    between atoms: _469  and  _470
REMARK  196  A    between atoms: _470  and  _802
REMARK  197  A    between atoms: _471  and  _473
REMARK  198  A    between atoms: _473  and  _474
REMARK  199  A    between atoms: _473  and  _476
REMARK  200  A    between atoms: _476  and  _477
REMARK  201  A    between atoms: _482  and  _483
REMARK  202  A    between atoms: _485  and  _487
REMARK  203  A    between atoms: _487  and  _488
REMARK  204  A    between atoms: _487  and  _490
REMARK  205  A    between atoms: _490  and  _491
REMARK  206  A    between atoms: _491  and  _492
REMARK  207  A    between atoms: _497  and  _499
REMARK  208  A    between atoms: _499  and  _500
REMARK  209  A    between atoms: _499  and  _502
REMARK  210  A    between atoms: _502  and  _503
REMARK  211  A    between atoms: _503  and  _504
REMARK  212  A    between atoms: _509  and  _511
REMARK  213  A    between atoms: _511  and  _512
REMARK  214  A    between atoms: _511  and  _514
REMARK  215  A    between atoms: _514  and  _515
REMARK  216  A    between atoms: _520  and  _521
REMARK  217  A    between atoms: _523  and  _525
REMARK  218  A    between atoms: _525  and  _526
REMARK  219  A    between atoms: _529  and  _531
REMARK  220  A    between atoms: _531  and  _532
REMARK  221  A    between atoms: _531  and  _534
REMARK  222  A    between atoms: _534  and  _535
REMARK  223  A    between atoms: _540  and  _541
REMARK  224  A    between atoms: _543  and  _545
REMARK  225  A    between atoms: _545  and  _546
REMARK  226  A    between atoms: _545  and  _548
REMARK  227  A    between atoms: _548  and  _549
REMARK  228  A    between atoms: _552  and  _554
REMARK  229  A    between atoms: _554  and  _555
REMARK  230  A    between atoms: _554  and  _557
REMARK  231  A    between atoms: _559  and  _561
REMARK  232  A    between atoms: _561  and  _562
REMARK  233  A    between atoms: _561  and  _564
REMARK  234  A    between atoms: _564  and  _565
REMARK  235  A    between atoms: _568  and  _570
REMARK  236  A    between atoms: _570  and  _571
REMARK  237  A    between atoms: _570  and  _573
REMARK  238  A    between atoms: _573  and  _574
REMARK  239  A    between atoms: _579  and  _580
REMARK  240  A    between atoms: _582  and  _584
REMARK  241  A    between atoms: _584  and  _585
REMARK  242  A    between atoms: _584  and  _587
REMARK  243  A    between atoms: _587  and  _588
REMARK  244  A    between atoms: _591  and  _593
REMARK  245  A    between atoms: _593  and  _594
REMARK  246  A    between atoms: _593  and  _596
REMARK  247  A    between atoms: _596  and  _597
REMARK  248  A    between atoms: _607  and  _609
REMARK  249  A    between atoms: _609  and  _610
REMARK  250  A    between atoms: _613  and  _615
REMARK  251  A    between atoms: _615  and  _616
REMARK  252  A    between atoms: _619  and  _621
REMARK  253  A    between atoms: _621  and  _622
REMARK  254  A    between atoms: _621  and  _624
REMARK  255  A    between atoms: _624  and  _625
REMARK  256  A    between atoms: _628  and  _630
REMARK  257  A    between atoms: _630  and  _631
REMARK  258  A    between atoms: _630  and  _633
REMARK  259  A    between atoms: _633  and  _634
REMARK  260  A    between atoms: _637  and  _639
REMARK  261  A    between atoms: _639  and  _640
REMARK  262  A    between atoms: _639  and  _642
REMARK  263  A    between atoms: _642  and  _643
REMARK  264  A    between atoms: _646  and  _648
REMARK  265  A    between atoms: _648  and  _649
REMARK  266  A    between atoms: _648  and  _651
REMARK  267  A    between atoms: _651  and  _652
REMARK  268  A    between atoms: _652  and  _653
REMARK  269  A    between atoms: _653  and  _654
REMARK  270  A    between atoms: _654  and  _655
REMARK  271  A    between atoms: _659  and  _661
REMARK  272  A    between atoms: _661  and  _662
REMARK  273  A    between atoms: _661  and  _664
REMARK  274  A    between atoms: _664  and  _665
REMARK  275  A    between atoms: _670  and  _672
REMARK  276  A    between atoms: _672  and  _673
REMARK  277  A    between atoms: _672  and  _675
REMARK  278  A    between atoms: _675  and  _676
REMARK  279  A    between atoms: _676  and  _677
REMARK  280  A    between atoms: _677  and  _678
REMARK  281  A    between atoms: _678  and  _679
REMARK  282  A    between atoms: _683  and  _685
REMARK  283  A    between atoms: _685  and  _686
REMARK  284  A    between atoms: _685  and  _688
REMARK  285  A    between atoms: _688  and  _689
REMARK  286  A    between atoms: _699  and  _701
REMARK  287  A    between atoms: _701  and  _702
REMARK  288  A    between atoms: _701  and  _704
REMARK  289  A    between atoms: _704  and  _705
REMARK  290  A    between atoms: _705  and  _706
REMARK  291  A    between atoms: _711  and  _713
REMARK  292  A    between atoms: _713  and  _714
REMARK  293  A    between atoms: _717  and  _719
REMARK  294  A    between atoms: _719  and  _720
REMARK  295  A    between atoms: _722  and  _724
REMARK  296  A    between atoms: _724  and  _725
REMARK  297  A    between atoms: _724  and  _727
REMARK  298  A    between atoms: _727  and  _728
REMARK  299  A    between atoms: _728  and  _729
REMARK  300  A    between atoms: _732  and  _734
REMARK  301  A    between atoms: _734  and  _735
REMARK  302  A    between atoms: _738  and  _740
REMARK  303  A    between atoms: _740  and  _741
REMARK  304  A    between atoms: _740  and  _743
REMARK  305  A    between atoms: _743  and  _744
REMARK  306  A    between atoms: _744  and  _745
REMARK  307  A    between atoms: _745  and  _746
REMARK  308  A    between atoms: _755  and  _757
REMARK  309  A    between atoms: _757  and  _758
REMARK  310  A    between atoms: _757  and  _760
REMARK  311  A    between atoms: _760  and  _761
REMARK  312  A    between atoms: _764  and  _766
REMARK  313  A    between atoms: _766  and  _767
REMARK  314  A    between atoms: _766  and  _769
REMARK  315  A    between atoms: _769  and  _770
REMARK  316  A    between atoms: _775  and  _776
REMARK  317  A    between atoms: _778  and  _780
REMARK  318  A    between atoms: _780  and  _781
REMARK  319  A    between atoms: _780  and  _783
REMARK  320  A    between atoms: _783  and  _784
REMARK  321  A    between atoms: _787  and  _789
REMARK  322  A    between atoms: _789  and  _790
REMARK  323  A    between atoms: _789  and  _792
REMARK  324  A    between atoms: _792  and  _793
REMARK  325  A    between atoms: _796  and  _798
REMARK  326  A    between atoms: _798  and  _799
REMARK  327  A    between atoms: _798  and  _801
REMARK  328  A    between atoms: _801  and  _802
REMARK  329  A    between atoms: _803  and  _805
REMARK  330  A    between atoms: _805  and  _806
REMARK  331  A    between atoms: _805  and  _808
REMARK  332  A    between atoms: _811  and  _813
REMARK  333  A    between atoms: _813  and  _814
REMARK  334  A    between atoms: _813  and  _816
REMARK  335  A    between atoms: _816  and  _817
REMARK  336  A    between atoms: _817  and  _818
REMARK  337  A    between atoms: _821  and  _823
REMARK  338  A    between atoms: _823  and  _824
REMARK  339  A    between atoms: _823  and  _826
REMARK  340  A    between atoms: _826  and  _827
REMARK  341  A    between atoms: _837  and  _839
REMARK  342  A    between atoms: _839  and  _840
REMARK  343  A    between atoms: _839  and  _842
REMARK  344  A    between atoms: _842  and  _843
REMARK  345  A    between atoms: _846  and  _848
REMARK  346  A    between atoms: _848  and  _849
REMARK  347  A    between atoms: _848  and  _851
REMARK  348  A    between atoms: _851  and  _852
REMARK  349  A    between atoms: _852  and  _853
REMARK  350  A    between atoms: _853  and  _854
REMARK  351  A    between atoms: _863  and  _865
REMARK  352  A    between atoms: _865  and  _866
REMARK  353  A    between atoms: _865  and  _868
REMARK  354  A    between atoms: _868  and  _869
REMARK  355  A    between atoms: _874  and  _875
REMARK                            x       y       z     vdW  Elec       q    Type
REMARK                         _______ _______ _______ _____ _____    ______ ____
ROOT
ATOM      1  O   HOH     1      62.387  29.472 -14.315  0.00  0.00    +0.000 OA
ENDROOT
TORSDOF 0
REMARK  Name = ../refined-set-2016/4pge/4pge_pocket.pdb
REMARK  355 active torsions:
REMARK  status: ('A' for Active; 'I' for Inactive)
REMARK    1  A    between atoms: _1  and  _3
REMARK    2  A    between atoms: _3  and  _4
REMARK    3  A    between atoms: _3  and  _6
REMARK    4  A    between atoms: _6  and  _7
REMARK    5  A    between atoms: _10  and  _12
REMARK    6  A    between atoms: _12  and  _13
REMARK    7  A    between atoms: _12  and  _15
REMARK    8  A    between atoms: _15  and  _16
REMARK    9  A    between atoms: _16  and  _17
REMARK   10  A    between atoms: _17  and  _18
REMARK   11  A    between atoms: _27  and  _29
REMARK   12  A    between atoms: _29  and  _30
REMARK   13  A    between atoms: _29  and  _32
REMARK   14  A    between atoms: _32  and  _33
REMARK   15  A    between atoms: _38  and  _39
REMARK   16  A    between atoms: _41  and  _43
REMARK   17  A    between atoms: _43  and  _44
REMARK   18  A    between atoms: _43  and  _46
REMARK   19  A    between atoms: _46  and  _47
REMARK   20  A    between atoms: _53  and  _55
REMARK   21  A    between atoms: _55  and  _56
REMARK   22  A    between atoms: _55  and  _58
REMARK   23  A    between atoms: _61  and  _63
REMARK   24  A    between atoms: _63  and  _64
REMARK   25  A    between atoms: _63  and  _66
REMARK   26  A    between atoms: _66  and  _67
REMARK   27  A    between atoms: _70  and  _72
REMARK   28  A    between atoms: _72  and  _73
REMARK   29  A    between atoms: _76  and  _78
REMARK   30  A    between atoms: _78  and  _79
REMARK   31  A    between atoms: _78  and  _81
REMARK   32  A    between atoms: _81  and  _82
REMARK   33  A    between atoms: _87  and  _88
REMARK   34  A    between atoms: _90  and  _92
REMARK   35  A    between atoms: _92  and  _93
REMARK   36  A    between atoms: _92  and  _95
REMARK   37  A    between atoms: _95  and  _96
REMARK   38  A    between atoms: _96  and  _97
REMARK   39  A    between atoms: _99  and  _101
REMARK   40  A    between atoms: _101  and  _102
REMARK   41  A    between atoms: _101  and  _104
REMARK   42  A    between atoms: _104  and  _105
REMARK   43  A    between atoms: _105  and  _106
REMARK   44  A    between atoms: _109  and  _111
REMARK   45  A    between atoms: _111  and  _112
REMARK   46  A    between atoms: _111  and  _114
REMARK   47  A    between atoms: _117  and  _119
REMARK   48  A    between atoms: _119  and  _120
REMARK   49  A    between atoms: _122  and  _124
REMARK   50  A    between atoms: _124  and  _125
REMARK   51  A    between atoms: _124  and  _127
REMARK   52  A    between atoms: _130  and  _132
REMARK   53  A    between atoms: _132  and  _133
REMARK   54  A    between atoms: _132  and  _135
REMARK   55  A    between atoms: _135  and  _136
REMARK   56  A    between atoms: _142  and  _144
REMARK   57  A    between atoms: _144  and  _145
REMARK   58  A    between atoms: _144  and  _147
REMARK   59  A    between atoms: _150  and  _152
REMARK   60  A    between atoms: _152  and  _153
REMARK   61  A    between atoms: _152  and  _155
REMARK   62  A    between atoms: _155  and  _156
REMARK   63  A    between atoms: _161  and  _162
REMARK   64  A    between atoms: _164  and  _166
REMARK   65  A    between atoms: _166  and  _167
REMARK   66  A    between atoms: _166  and  _169
REMARK   67  A    between atoms: _169  and  _170
REMARK   68  A    between atoms: _170  and  _171
REMARK   69  A    between atoms: _173  and  _175
REMARK   70  A    between atoms: _175  and  _176
REMARK   71  A    between atoms: _175  and  _178
REMARK   72  A    between atoms: _178  and  _179
REMARK   73  A    between atoms: _179  and  _180
REMARK   74  A    between atoms: _183  and  _185
REMARK   75  A    between atoms: _185  and  _186
REMARK   76  A    between atoms: _185  and  _188
REMARK   77  A    between atoms: _188  and  _189
REMARK   78  A    between atoms: _189  and  _190
REMARK   79  A    between atoms: _193  and  _195
REMARK   80  A    between atoms: _195  and  _196
REMARK   81  A    between atoms: _195  and  _198
REMARK   82  A    between atoms: _198  and  _199
REMARK   83  A    between atoms: _204  and  _205
REMARK   84  A    between atoms: _207  and  _209
REMARK   85  A    between atoms: _209  and  _210
REMARK   86  A    between atoms: _209  and  _212
REMARK   87  A    between atoms: _212  and  _213
REMARK   88  A    between atoms: _213  and  _214
REMARK   89  A    between atoms: _214  and  _215
REMARK   90  A    between atoms: _224  and  _226
REMARK   91  A    between atoms: _226  and  _227
REMARK   92  A    between atoms: _226  and  _229
REMARK   93  A    between atoms: _229  and  _230
REMARK   94  A    between atoms: _230  and  _231
REMARK   95  A    between atoms: _234  and  _236
REMARK   96  A    between atoms: _236  and  _237
REMARK   97  A    between atoms: _236  and  _239
REMARK   98  A    between atoms: _239  and  _240
REMARK   99  A    between atoms: _243  and  _245
REMARK  100  A    between atoms: _245  and  _246
REMARK  101  A    between atoms: _245  and  _248
REMARK  102  A    between atoms: _248  and  _249
REMARK  103  A    between atoms: _249  and  _250
REMARK  104  A    between atoms: _255  and  _257
REMARK  105  A    between atoms: _257  and  _258
REMARK  106  A    between atoms: _257  and  _260
REMARK  107  A    between atoms: _260  and  _261
REMARK  108  A    between atoms: _261  and  _262
REMARK  109  A    between atoms: _262  and  _263
REMARK  110  A    between atoms: _263  and  _264
REMARK  111  A    between atoms: _268  and  _270
REMARK  112  A    between atoms: _270  and  _271
REMARK  113  A    between atoms: _274  and  _276
REMARK  114  A    between atoms: _276  and  _277
REMARK  115  A    between atoms: _279  and  _281
REMARK  116  A    between atoms: _281  and  _282
REMARK  117  A    between atoms: _281  and  _284
REMARK  118  A    between atoms: _284  and  _285
REMARK  119  A    between atoms: _290  and  _292
REMARK  120  A    between atoms: _292  and  _293
REMARK  121  A    between atoms: _292  and  _295
REMARK  122  A    between atoms: _295  and  _296
REMARK  123  A    between atoms: _296  and  _297
REMARK  124  A    between atoms: _300  and  _302
REMARK  125  A    between atoms: _302  and  _303
REMARK  126  A    between atoms: _302  and  _305
REMARK  127  A    between atoms: _305  and  _306
REMARK  128  A    between atoms: _306  and  _307
REMARK  129  A    between atoms: _312  and  _314
REMARK  130  A    between atoms: _314  and  _315
REMARK  131  A    between atoms: _314  and  _317
REMARK  132  A    between atoms: _317  and  _318
REMARK  133  A    between atoms: _320  and  _322
REMARK  134  A    between atoms: _322  and  _323
REMARK  135  A    between atoms: _322  and  _325
REMARK  136  A    between atoms: _325  and  _326
REMARK  137  A    between atoms: _332  and  _334
REMARK  138  A    between atoms: _334  and  _335
REMARK  139  A    between atoms: _334  and  _337
REMARK  140  A    between atoms: _340  and  _342
REMARK  141  A    between atoms: _342  and  _343
REMARK  142  A    between atoms: _342  and  _345
REMARK  143  A    between atoms: _345  and  _346
REMARK  144  A    between atoms: _349  and  _351
REMARK  145  A    between atoms: _351  and  _352
REMARK  146  A    between atoms: _351  and  _354
REMARK  147  A    between atoms: _354  and  _355
REMARK  148  A    between atoms: _358  and  _360
REMARK  149  A    between atoms: _360  and  _361
REMARK  150  A    between atoms: _360  and  _363
REMARK  151  A    between atoms: _363  and  _364
REMARK  152  A    between atoms: _367  and  _369
REMARK  153  A    between atoms: _369  and  _370
REMARK  154  A    between atoms: _369  and  _372
REMARK  155  A    between atoms: _372  and  _373
REMARK  156  A    between atoms: _376  and  _378
REMARK  157  A    between atoms: _378  and  _379
REMARK  158  A    between atoms: _378  and  _381
REMARK  159  A    between atoms: _381  and  _382
REMARK  160  A    between atoms: _387  and  _388
REMARK  161  A    between atoms: _390  and  _392
REMARK  162  A    between atoms: _392  and  _393
REMARK  163  A    between atoms: _392  and  _395
REMARK  164  A    between atoms: _395  and  _396
REMARK  165  A    between atoms: _401  and  _402
REMARK  166  A    between atoms: _404  and  _406
REMARK  167  A    between atoms: _406  and  _407
REMARK  168  A    between atoms: _406  and  _409
REMARK  169  A    between atoms: _409  and  _410
REMARK  170  A    between atoms: _413  and  _415
REMARK  171  A    between atoms: _415  and  _416
REMARK  172  A    between atoms: _415  and  _418
REMARK  173  A    between atoms: _418  and  _419
REMARK  174  A    between atoms: _422  and  _424
REMARK  175  A    between atoms: _424  and  _425
REMARK  176  A    between atoms: _424  and  _427
REMARK  177  A    between atoms: _427  and  _428
REMARK  178  A    between atoms: _428  and  _429
REMARK  179  A    between atoms: _434  and  _436
REMARK  180  A    between atoms: _436  and  _437
REMARK  181  A    between atoms: _436  and  _439
REMARK  182  A    between atoms: _442  and  _444
REMARK  183  A    between atoms: _444  and  _445
REMARK  184  A    between atoms: _444  and  _447
REMARK  185  A    between atoms: _447  and  _448
REMARK  186  A    between atoms: _451  and  _453
REMARK  187  A    between atoms: _453  and  _454
REMARK  188  A    between atoms: _453  and  _456
REMARK  189  A    between atoms: _456  and  _457
REMARK  190  A    between atoms: _459  and  _461
REMARK  191  A    between atoms: _461  and  _462
REMARK  192  A    between atoms: _464  and  _466
REMARK  193  A    between atoms: _466  and  _467
REMARK  194  A    between atoms: _466  and  _469
REMARK  195  A    between atoms: _469  and  _470
REMARK  196  A    between atoms: _470  and  _802
REMARK  197  A    between atoms: _471  and  _473
REMARK  198  A    between atoms: _473  and  _474
REMARK  199  A    between atoms: _473  and  _476
REMARK  200  A    between atoms: _476  and  _477
REMARK  201  A    between atoms: _482  and  _483
REMARK  202  A    between atoms: _485  and  _487
REMARK  203  A    between atoms: _487  and  _488
REMARK  204  A    between atoms: _487  and  _490
REMARK  205  A    between atoms: _490  and  _491
REMARK  206  A    between atoms: _491  and  _492
REMARK  207  A    between atoms: _497  and  _499
REMARK  208  A    between atoms: _499  and  _500
REMARK  209  A    between atoms: _499  and  _502
REMARK  210  A    between atoms: _502  and  _503
REMARK  211  A    between atoms: _503  and  _504
REMARK  212  A    between atoms: _509  and  _511
REMARK  213  A    between atoms: _511  and  _512
REMARK  214  A    between atoms: _511  and  _514
REMARK  215  A    between atoms: _514  and  _515
REMARK  216  A    between atoms: _520  and  _521
REMARK  217  A    between atoms: _523  and  _525
REMARK  218  A    between atoms: _525  and  _526
REMARK  219  A    between atoms: _529  and  _531
REMARK  220  A    between atoms: _531  and  _532
REMARK  221  A    between atoms: _531  and  _534
REMARK  222  A    between atoms: _534  and  _535
REMARK  223  A    between atoms: _540  and  _541
REMARK  224  A    between atoms: _543  and  _545
REMARK  225  A    between atoms: _545  and  _546
REMARK  226  A    between atoms: _545  and  _548
REMARK  227  A    between atoms: _548  and  _549
REMARK  228  A    between atoms: _552  and  _554
REMARK  229  A    between atoms: _554  and  _555
REMARK  230  A    between atoms: _554  and  _557
REMARK  231  A    between atoms: _559  and  _561
REMARK  232  A    between atoms: _561  and  _562
REMARK  233  A    between atoms: _561  and  _564
REMARK  234  A    between atoms: _564  and  _565
REMARK  235  A    between atoms: _568  and  _570
REMARK  236  A    between atoms: _570  and  _571
REMARK  237  A    between atoms: _570  and  _573
REMARK  238  A    between atoms: _573  and  _574
REMARK  239  A    between atoms: _579  and  _580
REMARK  240  A    between atoms: _582  and  _584
REMARK  241  A    between atoms: _584  and  _585
REMARK  242  A    between atoms: _584  and  _587
REMARK  243  A    between atoms: _587  and  _588
REMARK  244  A    between atoms: _591  and  _593
REMARK  245  A    between atoms: _593  and  _594
REMARK  246  A    between atoms: _593  and  _596
REMARK  247  A    between atoms: _596  and  _597
REMARK  248  A    between atoms: _607  and  _609
REMARK  249  A    between atoms: _609  and  _610
REMARK  250  A    between atoms: _613  and  _615
REMARK  251  A    between atoms: _615  and  _616
REMARK  252  A    between atoms: _619  and  _621
REMARK  253  A    between atoms: _621  and  _622
REMARK  254  A    between atoms: _621  and  _624
REMARK  255  A    between atoms: _624  and  _625
REMARK  256  A    between atoms: _628  and  _630
REMARK  257  A    between atoms: _630  and  _631
REMARK  258  A    between atoms: _630  and  _633
REMARK  259  A    between atoms: _633  and  _634
REMARK  260  A    between atoms: _637  and  _639
REMARK  261  A    between atoms: _639  and  _640
REMARK  262  A    between atoms: _639  and  _642
REMARK  263  A    between atoms: _642  and  _643
REMARK  264  A    between atoms: _646  and  _648
REMARK  265  A    between atoms: _648  and  _649
REMARK  266  A    between atoms: _648  and  _651
REMARK  267  A    between atoms: _651  and  _652
REMARK  268  A    between atoms: _652  and  _653
REMARK  269  A    between atoms: _653  and  _654
REMARK  270  A    between atoms: _654  and  _655
REMARK  271  A    between atoms: _659  and  _661
REMARK  272  A    between atoms: _661  and  _662
REMARK  273  A    between atoms: _661  and  _664
REMARK  274  A    between atoms: _664  and  _665
REMARK  275  A    between atoms: _670  and  _672
REMARK  276  A    between atoms: _672  and  _673
REMARK  277  A    between atoms: _672  and  _675
REMARK  278  A    between atoms: _675  and  _676
REMARK  279  A    between atoms: _676  and  _677
REMARK  280  A    between atoms: _677  and  _678
REMARK  281  A    between atoms: _678  and  _679
REMARK  282  A    between atoms: _683  and  _685
REMARK  283  A    between atoms: _685  and  _686
REMARK  284  A    between atoms: _685  and  _688
REMARK  285  A    between atoms: _688  and  _689
REMARK  286  A    between atoms: _699  and  _701
REMARK  287  A    between atoms: _701  and  _702
REMARK  288  A    between atoms: _701  and  _704
REMARK  289  A    between atoms: _704  and  _705
REMARK  290  A    between atoms: _705  and  _706
REMARK  291  A    between atoms: _711  and  _713
REMARK  292  A    between atoms: _713  and  _714
REMARK  293  A    between atoms: _717  and  _719
REMARK  294  A    between atoms: _719  and  _720
REMARK  295  A    between atoms: _722  and  _724
REMARK  296  A    between atoms: _724  and  _725
REMARK  297  A    between atoms: _724  and  _727
REMARK  298  A    between atoms: _727  and  _728
REMARK  299  A    between atoms: _728  and  _729
REMARK  300  A    between atoms: _732  and  _734
REMARK  301  A    between atoms: _734  and  _735
REMARK  302  A    between atoms: _738  and  _740
REMARK  303  A    between atoms: _740  and  _741
REMARK  304  A    between atoms: _740  and  _743
REMARK  305  A    between atoms: _743  and  _744
REMARK  306  A    between atoms: _744  and  _745
REMARK  307  A    between atoms: _745  and  _746
REMARK  308  A    between atoms: _755  and  _757
REMARK  309  A    between atoms: _757  and  _758
REMARK  310  A    between atoms: _757  and  _760
REMARK  311  A    between atoms: _760  and  _761
REMARK  312  A    between atoms: _764  and  _766
REMARK  313  A    between atoms: _766  and  _767
REMARK  314  A    between atoms: _766  and  _769
REMARK  315  A    between atoms: _769  and  _770
REMARK  316  A    between atoms: _775  and  _776
REMARK  317  A    between atoms: _778  and  _780
REMARK  318  A    between atoms: _780  and  _781
REMARK  319  A    between atoms: _780  and  _783
REMARK  320  A    between atoms: _783  and  _784
REMARK  321  A    between atoms: _787  and  _789
REMARK  322  A    between atoms: _789  and  _790
REMARK  323  A    between atoms: _789  and  _792
REMARK  324  A    between atoms: _792  and  _793
REMARK  325  A    between atoms: _796  and  _798
REMARK  326  A    between atoms: _798  and  _799
REMARK  327  A    between atoms: _798  and  _801
REMARK  328  A    between atoms: _801  and  _802
REMARK  329  A    between atoms: _803  and  _805
REMARK  330  A    between atoms: _805  and  _806
REMARK  331  A    between atoms: _805  and  _808
REMARK  332  A    between atoms: _811  and  _813
REMARK  333  A    between atoms: _813  and  _814
REMARK  334  A    between atoms: _813  and  _816
REMARK  335  A    between atoms: _816  and  _817
REMARK  336  A    between atoms: _817  and  _818
REMARK  337  A    between atoms: _821  and  _823
REMARK  338  A    between atoms: _823  and  _824
REMARK  339  A    between atoms: _823  and  _826
REMARK  340  A    between atoms: _826  and  _827
REMARK  341  A    between atoms: _837  and  _839
REMARK  342  A    between atoms: _839  and  _840
REMARK  343  A    between atoms: _839  and  _842
REMARK  344  A    between atoms: _842  and  _843
REMARK  345  A    between atoms: _846  and  _848
REMARK  346  A    between atoms: _848  and  _849
REMARK  347  A    between atoms: _848  and  _851
REMARK  348  A    between atoms: _851  and  _852
REMARK  349  A    between atoms: _852  and  _853
REMARK  350  A    between atoms: _853  and  _854
REMARK  351  A    between atoms: _863  and  _865
REMARK  352  A    between atoms: _865  and  _866
REMARK  353  A    between atoms: _865  and  _868
REMARK  354  A    between atoms: _868  and  _869
REMARK  355  A    between atoms: _874  and  _875
REMARK                            x       y       z     vdW  Elec       q    Type
REMARK                         _______ _______ _______ _____ _____    ______ ____
ROOT
ATOM      1  O   HOH     1      55.310  24.934  -0.614  0.00  0.00    +0.000 OA
ENDROOT
TORSDOF 0
REMARK  Name = ../refined-set-2016/4pge/4pge_pocket.pdb
REMARK  355 active torsions:
REMARK  status: ('A' for Active; 'I' for Inactive)
REMARK    1  A    between atoms: _1  and  _3
REMARK    2  A    between atoms: _3  and  _4
REMARK    3  A    between atoms: _3  and  _6
REMARK    4  A    between atoms: _6  and  _7
REMARK    5  A    between atoms: _10  and  _12
REMARK    6  A    between atoms: _12  and  _13
REMARK    7  A    between atoms: _12  and  _15
REMARK    8  A    between atoms: _15  and  _16
REMARK    9  A    between atoms: _16  and  _17
REMARK   10  A    between atoms: _17  and  _18
REMARK   11  A    between atoms: _27  and  _29
REMARK   12  A    between atoms: _29  and  _30
REMARK   13  A    between atoms: _29  and  _32
REMARK   14  A    between atoms: _32  and  _33
REMARK   15  A    between atoms: _38  and  _39
REMARK   16  A    between atoms: _41  and  _43
REMARK   17  A    between atoms: _43  and  _44
REMARK   18  A    between atoms: _43  and  _46
REMARK   19  A    between atoms: _46  and  _47
REMARK   20  A    between atoms: _53  and  _55
REMARK   21  A    between atoms: _55  and  _56
REMARK   22  A    between atoms: _55  and  _58
REMARK   23  A    between atoms: _61  and  _63
REMARK   24  A    between atoms: _63  and  _64
REMARK   25  A    between atoms: _63  and  _66
REMARK   26  A    between atoms: _66  and  _67
REMARK   27  A    between atoms: _70  and  _72
REMARK   28  A    between atoms: _72  and  _73
REMARK   29  A    between atoms: _76  and  _78
REMARK   30  A    between atoms: _78  and  _79
REMARK   31  A    between atoms: _78  and  _81
REMARK   32  A    between atoms: _81  and  _82
REMARK   33  A    between atoms: _87  and  _88
REMARK   34  A    between atoms: _90  and  _92
REMARK   35  A    between atoms: _92  and  _93
REMARK   36  A    between atoms: _92  and  _95
REMARK   37  A    between atoms: _95  and  _96
REMARK   38  A    between atoms: _96  and  _97
REMARK   39  A    between atoms: _99  and  _101
REMARK   40  A    between atoms: _101  and  _102
REMARK   41  A    between atoms: _101  and  _104
REMARK   42  A    between atoms: _104  and  _105
REMARK   43  A    between atoms: _105  and  _106
REMARK   44  A    between atoms: _109  and  _111
REMARK   45  A    between atoms: _111  and  _112
REMARK   46  A    between atoms: _111  and  _114
REMARK   47  A    between atoms: _117  and  _119
REMARK   48  A    between atoms: _119  and  _120
REMARK   49  A    between atoms: _122  and  _124
REMARK   50  A    between atoms: _124  and  _125
REMARK   51  A    between atoms: _124  and  _127
REMARK   52  A    between atoms: _130  and  _132
REMARK   53  A    between atoms: _132  and  _133
REMARK   54  A    between atoms: _132  and  _135
REMARK   55  A    between atoms: _135  and  _136
REMARK   56  A    between atoms: _142  and  _144
REMARK   57  A    between atoms: _144  and  _145
REMARK   58  A    between atoms: _144  and  _147
REMARK   59  A    between atoms: _150  and  _152
REMARK   60  A    between atoms: _152  and  _153
REMARK   61  A    between atoms: _152  and  _155
REMARK   62  A    between atoms: _155  and  _156
REMARK   63  A    between atoms: _161  and  _162
REMARK   64  A    between atoms: _164  and  _166
REMARK   65  A    between atoms: _166  and  _167
REMARK   66  A    between atoms: _166  and  _169
REMARK   67  A    between atoms: _169  and  _170
REMARK   68  A    between atoms: _170  and  _171
REMARK   69  A    between atoms: _173  and  _175
REMARK   70  A    between atoms: _175  and  _176
REMARK   71  A    between atoms: _175  and  _178
REMARK   72  A    between atoms: _178  and  _179
REMARK   73  A    between atoms: _179  and  _180
REMARK   74  A    between atoms: _183  and  _185
REMARK   75  A    between atoms: _185  and  _186
REMARK   76  A    between atoms: _185  and  _188
REMARK   77  A    between atoms: _188  and  _189
REMARK   78  A    between atoms: _189  and  _190
REMARK   79  A    between atoms: _193  and  _195
REMARK   80  A    between atoms: _195  and  _196
REMARK   81  A    between atoms: _195  and  _198
REMARK   82  A    between atoms: _198  and  _199
REMARK   83  A    between atoms: _204  and  _205
REMARK   84  A    between atoms: _207  and  _209
REMARK   85  A    between atoms: _209  and  _210
REMARK   86  A    between atoms: _209  and  _212
REMARK   87  A    between atoms: _212  and  _213
REMARK   88  A    between atoms: _213  and  _214
REMARK   89  A    between atoms: _214  and  _215
REMARK   90  A    between atoms: _224  and  _226
REMARK   91  A    between atoms: _226  and  _227
REMARK   92  A    between atoms: _226  and  _229
REMARK   93  A    between atoms: _229  and  _230
REMARK   94  A    between atoms: _230  and  _231
REMARK   95  A    between atoms: _234  and  _236
REMARK   96  A    between atoms: _236  and  _237
REMARK   97  A    between atoms: _236  and  _239
REMARK   98  A    between atoms: _239  and  _240
REMARK   99  A    between atoms: _243  and  _245
REMARK  100  A    between atoms: _245  and  _246
REMARK  101  A    between atoms: _245  and  _248
REMARK  102  A    between atoms: _248  and  _249
REMARK  103  A    between atoms: _249  and  _250
REMARK  104  A    between atoms: _255  and  _257
REMARK  105  A    between atoms: _257  and  _258
REMARK  106  A    between atoms: _257  and  _260
REMARK  107  A    between atoms: _260  and  _261
REMARK  108  A    between atoms: _261  and  _262
REMARK  109  A    between atoms: _262  and  _263
REMARK  110  A    between atoms: _263  and  _264
REMARK  111  A    between atoms: _268  and  _270
REMARK  112  A    between atoms: _270  and  _271
REMARK  113  A    between atoms: _274  and  _276
REMARK  114  A    between atoms: _276  and  _277
REMARK  115  A    between atoms: _279  and  _281
REMARK  116  A    between atoms: _281  and  _282
REMARK  117  A    between atoms: _281  and  _284
REMARK  118  A    between atoms: _284  and  _285
REMARK  119  A    between atoms: _290  and  _292
REMARK  120  A    between atoms: _292  and  _293
REMARK  121  A    between atoms: _292  and  _295
REMARK  122  A    between atoms: _295  and  _296
REMARK  123  A    between atoms: _296  and  _297
REMARK  124  A    between atoms: _300  and  _302
REMARK  125  A    between atoms: _302  and  _303
REMARK  126  A    between atoms: _302  and  _305
REMARK  127  A    between atoms: _305  and  _306
REMARK  128  A    between atoms: _306  and  _307
REMARK  129  A    between atoms: _312  and  _314
REMARK  130  A    between atoms: _314  and  _315
REMARK  131  A    between atoms: _314  and  _317
REMARK  132  A    between atoms: _317  and  _318
REMARK  133  A    between atoms: _320  and  _322
REMARK  134  A    between atoms: _322  and  _323
REMARK  135  A    between atoms: _322  and  _325
REMARK  136  A    between atoms: _325  and  _326
REMARK  137  A    between atoms: _332  and  _334
REMARK  138  A    between atoms: _334  and  _335
REMARK  139  A    between atoms: _334  and  _337
REMARK  140  A    between atoms: _340  and  _342
REMARK  141  A    between atoms: _342  and  _343
REMARK  142  A    between atoms: _342  and  _345
REMARK  143  A    between atoms: _345  and  _346
REMARK  144  A    between atoms: _349  and  _351
REMARK  145  A    between atoms: _351  and  _352
REMARK  146  A    between atoms: _351  and  _354
REMARK  147  A    between atoms: _354  and  _355
REMARK  148  A    between atoms: _358  and  _360
REMARK  149  A    between atoms: _360  and  _361
REMARK  150  A    between atoms: _360  and  _363
REMARK  151  A    between atoms: _363  and  _364
REMARK  152  A    between atoms: _367  and  _369
REMARK  153  A    between atoms: _369  and  _370
REMARK  154  A    between atoms: _369  and  _372
REMARK  155  A    between atoms: _372  and  _373
REMARK  156  A    between atoms: _376  and  _378
REMARK  157  A    between atoms: _378  and  _379
REMARK  158  A    between atoms: _378  and  _381
REMARK  159  A    between atoms: _381  and  _382
REMARK  160  A    between atoms: _387  and  _388
REMARK  161  A    between atoms: _390  and  _392
REMARK  162  A    between atoms: _392  and  _393
REMARK  163  A    between atoms: _392  and  _395
REMARK  164  A    between atoms: _395  and  _396
REMARK  165  A    between atoms: _401  and  _402
REMARK  166  A    between atoms: _404  and  _406
REMARK  167  A    between atoms: _406  and  _407
REMARK  168  A    between atoms: _406  and  _409
REMARK  169  A    between atoms: _409  and  _410
REMARK  170  A    between atoms: _413  and  _415
REMARK  171  A    between atoms: _415  and  _416
REMARK  172  A    between atoms: _415  and  _418
REMARK  173  A    between atoms: _418  and  _419
REMARK  174  A    between atoms: _422  and  _424
REMARK  175  A    between atoms: _424  and  _425
REMARK  176  A    between atoms: _424  and  _427
REMARK  177  A    between atoms: _427  and  _428
REMARK  178  A    between atoms: _428  and  _429
REMARK  179  A    between atoms: _434  and  _436
REMARK  180  A    between atoms: _436  and  _437
REMARK  181  A    between atoms: _436  and  _439
REMARK  182  A    between atoms: _442  and  _444
REMARK  183  A    between atoms: _444  and  _445
REMARK  184  A    between atoms: _444  and  _447
REMARK  185  A    between atoms: _447  and  _448
REMARK  186  A    between atoms: _451  and  _453
REMARK  187  A    between atoms: _453  and  _454
REMARK  188  A    between atoms: _453  and  _456
REMARK  189  A    between atoms: _456  and  _457
REMARK  190  A    between atoms: _459  and  _461
REMARK  191  A    between atoms: _461  and  _462
REMARK  192  A    between atoms: _464  and  _466
REMARK  193  A    between atoms: _466  and  _467
REMARK  194  A    between atoms: _466  and  _469
REMARK  195  A    between atoms: _469  and  _470
REMARK  196  A    between atoms: _470  and  _802
REMARK  197  A    between atoms: _471  and  _473
REMARK  198  A    between atoms: _473  and  _474
REMARK  199  A    between atoms: _473  and  _476
REMARK  200  A    between atoms: _476  and  _477
REMARK  201  A    between atoms: _482  and  _483
REMARK  202  A    between atoms: _485  and  _487
REMARK  203  A    between atoms: _487  and  _488
REMARK  204  A    between atoms: _487  and  _490
REMARK  205  A    between atoms: _490  and  _491
REMARK  206  A    between atoms: _491  and  _492
REMARK  207  A    between atoms: _497  and  _499
REMARK  208  A    between atoms: _499  and  _500
REMARK  209  A    between atoms: _499  and  _502
REMARK  210  A    between atoms: _502  and  _503
REMARK  211  A    between atoms: _503  and  _504
REMARK  212  A    between atoms: _509  and  _511
REMARK  213  A    between atoms: _511  and  _512
REMARK  214  A    between atoms: _511  and  _514
REMARK  215  A    between atoms: _514  and  _515
REMARK  216  A    between atoms: _520  and  _521
REMARK  217  A    between atoms: _523  and  _525
REMARK  218  A    between atoms: _525  and  _526
REMARK  219  A    between atoms: _529  and  _531
REMARK  220  A    between atoms: _531  and  _532
REMARK  221  A    between atoms: _531  and  _534
REMARK  222  A    between atoms: _534  and  _535
REMARK  223  A    between atoms: _540  and  _541
REMARK  224  A    between atoms: _543  and  _545
REMARK  225  A    between atoms: _545  and  _546
REMARK  226  A    between atoms: _545  and  _548
REMARK  227  A    between atoms: _548  and  _549
REMARK  228  A    between atoms: _552  and  _554
REMARK  229  A    between atoms: _554  and  _555
REMARK  230  A    between atoms: _554  and  _557
REMARK  231  A    between atoms: _559  and  _561
REMARK  232  A    between atoms: _561  and  _562
REMARK  233  A    between atoms: _561  and  _564
REMARK  234  A    between atoms: _564  and  _565
REMARK  235  A    between atoms: _568  and  _570
REMARK  236  A    between atoms: _570  and  _571
REMARK  237  A    between atoms: _570  and  _573
REMARK  238  A    between atoms: _573  and  _574
REMARK  239  A    between atoms: _579  and  _580
REMARK  240  A    between atoms: _582  and  _584
REMARK  241  A    between atoms: _584  and  _585
REMARK  242  A    between atoms: _584  and  _587
REMARK  243  A    between atoms: _587  and  _588
REMARK  244  A    between atoms: _591  and  _593
REMARK  245  A    between atoms: _593  and  _594
REMARK  246  A    between atoms: _593  and  _596
REMARK  247  A    between atoms: _596  and  _597
REMARK  248  A    between atoms: _607  and  _609
REMARK  249  A    between atoms: _609  and  _610
REMARK  250  A    between atoms: _613  and  _615
REMARK  251  A    between atoms: _615  and  _616
REMARK  252  A    between atoms: _619  and  _621
REMARK  253  A    between atoms: _621  and  _622
REMARK  254  A    between atoms: _621  and  _624
REMARK  255  A    between atoms: _624  and  _625
REMARK  256  A    between atoms: _628  and  _630
REMARK  257  A    between atoms: _630  and  _631
REMARK  258  A    between atoms: _630  and  _633
REMARK  259  A    between atoms: _633  and  _634
REMARK  260  A    between atoms: _637  and  _639
REMARK  261  A    between atoms: _639  and  _640
REMARK  262  A    between atoms: _639  and  _642
REMARK  263  A    between atoms: _642  and  _643
REMARK  264  A    between atoms: _646  and  _648
REMARK  265  A    between atoms: _648  and  _649
REMARK  266  A    between atoms: _648  and  _651
REMARK  267  A    between atoms: _651  and  _652
REMARK  268  A    between atoms: _652  and  _653
REMARK  269  A    between atoms: _653  and  _654
REMARK  270  A    between atoms: _654  and  _655
REMARK  271  A    between atoms: _659  and  _661
REMARK  272  A    between atoms: _661  and  _662
REMARK  273  A    between atoms: _661  and  _664
REMARK  274  A    between atoms: _664  and  _665
REMARK  275  A    between atoms: _670  and  _672
REMARK  276  A    between atoms: _672  and  _673
REMARK  277  A    between atoms: _672  and  _675
REMARK  278  A    between atoms: _675  and  _676
REMARK  279  A    between atoms: _676  and  _677
REMARK  280  A    between atoms: _677  and  _678
REMARK  281  A    between atoms: _678  and  _679
REMARK  282  A    between atoms: _683  and  _685
REMARK  283  A    between atoms: _685  and  _686
REMARK  284  A    between atoms: _685  and  _688
REMARK  285  A    between atoms: _688  and  _689
REMARK  286  A    between atoms: _699  and  _701
REMARK  287  A    between atoms: _701  and  _702
REMARK  288  A    between atoms: _701  and  _704
REMARK  289  A    between atoms: _704  and  _705
REMARK  290  A    between atoms: _705  and  _706
REMARK  291  A    between atoms: _711  and  _713
REMARK  292  A    between atoms: _713  and  _714
REMARK  293  A    between atoms: _717  and  _719
REMARK  294  A    between atoms: _719  and  _720
REMARK  295  A    between atoms: _722  and  _724
REMARK  296  A    between atoms: _724  and  _725
REMARK  297  A    between atoms: _724  and  _727
REMARK  298  A    between atoms: _727  and  _728
REMARK  299  A    between atoms: _728  and  _729
REMARK  300  A    between atoms: _732  and  _734
REMARK  301  A    between atoms: _734  and  _735
REMARK  302  A    between atoms: _738  and  _740
REMARK  303  A    between atoms: _740  and  _741
REMARK  304  A    between atoms: _740  and  _743
REMARK  305  A    between atoms: _743  and  _744
REMARK  306  A    between atoms: _744  and  _745
REMARK  307  A    between atoms: _745  and  _746
REMARK  308  A    between atoms: _755  and  _757
REMARK  309  A    between atoms: _757  and  _758
REMARK  310  A    between atoms: _757  and  _760
REMARK  311  A    between atoms: _760  and  _761
REMARK  312  A    between atoms: _764  and  _766
REMARK  313  A    between atoms: _766  and  _767
REMARK  314  A    between atoms: _766  and  _769
REMARK  315  A    between atoms: _769  and  _770
REMARK  316  A    between atoms: _775  and  _776
REMARK  317  A    between atoms: _778  and  _780
REMARK  318  A    between atoms: _780  and  _781
REMARK  319  A    between atoms: _780  and  _783
REMARK  320  A    between atoms: _783  and  _784
REMARK  321  A    between atoms: _787  and  _789
REMARK  322  A    between atoms: _789  and  _790
REMARK  323  A    between atoms: _789  and  _792
REMARK  324  A    between atoms: _792  and  _793
REMARK  325  A    between atoms: _796  and  _798
REMARK  326  A    between atoms: _798  and  _799
REMARK  327  A    between atoms: _798  and  _801
REMARK  328  A    between atoms: _801  and  _802
REMARK  329  A    between atoms: _803  and  _805
REMARK  330  A    between atoms: _805  and  _806
REMARK  331  A    between atoms: _805  and  _808
REMARK  332  A    between atoms: _811  and  _813
REMARK  333  A    between atoms: _813  and  _814
REMARK  334  A    between atoms: _813  and  _816
REMARK  335  A    between atoms: _816  and  _817
REMARK  336  A    between atoms: _817  and  _818
REMARK  337  A    between atoms: _821  and  _823
REMARK  338  A    between atoms: _823  and  _824
REMARK  339  A    between atoms: _823  and  _826
REMARK  340  A    between atoms: _826  and  _827
REMARK  341  A    between atoms: _837  and  _839
REMARK  342  A    between atoms: _839  and  _840
REMARK  343  A    between atoms: _839  and  _842
REMARK  344  A    between atoms: _842  and  _843
REMARK  345  A    between atoms: _846  and  _848
REMARK  346  A    between atoms: _848  and  _849
REMARK  347  A    between atoms: _848  and  _851
REMARK  348  A    between atoms: _851  and  _852
REMARK  349  A    between atoms: _852  and  _853
REMARK  350  A    between atoms: _853  and  _854
REMARK  351  A    between atoms: _863  and  _865
REMARK  352  A    between atoms: _865  and  _866
REMARK  353  A    between atoms: _865  and  _868
REMARK  354  A    between atoms: _868  and  _869
REMARK  355  A    between atoms: _874  and  _875
REMARK                            x       y       z     vdW  Elec       q    Type
REMARK                         _______ _______ _______ _____ _____    ______ ____
ROOT
ATOM      1  O   HOH     1      56.108  27.477  -9.956  0.00  0.00    +0.000 OA
ENDROOT
TORSDOF 0
REMARK  Name = ../refined-set-2016/4pge/4pge_pocket.pdb
REMARK  355 active torsions:
REMARK  status: ('A' for Active; 'I' for Inactive)
REMARK    1  A    between atoms: _1  and  _3
REMARK    2  A    between atoms: _3  and  _4
REMARK    3  A    between atoms: _3  and  _6
REMARK    4  A    between atoms: _6  and  _7
REMARK    5  A    between atoms: _10  and  _12
REMARK    6  A    between atoms: _12  and  _13
REMARK    7  A    between atoms: _12  and  _15
REMARK    8  A    between atoms: _15  and  _16
REMARK    9  A    between atoms: _16  and  _17
REMARK   10  A    between atoms: _17  and  _18
REMARK   11  A    between atoms: _27  and  _29
REMARK   12  A    between atoms: _29  and  _30
REMARK   13  A    between atoms: _29  and  _32
REMARK   14  A    between atoms: _32  and  _33
REMARK   15  A    between atoms: _38  and  _39
REMARK   16  A    between atoms: _41  and  _43
REMARK   17  A    between atoms: _43  and  _44
REMARK   18  A    between atoms: _43  and  _46
REMARK   19  A    between atoms: _46  and  _47
REMARK   20  A    between atoms: _53  and  _55
REMARK   21  A    between atoms: _55  and  _56
REMARK   22  A    between atoms: _55  and  _58
REMARK   23  A    between atoms: _61  and  _63
REMARK   24  A    between atoms: _63  and  _64
REMARK   25  A    between atoms: _63  and  _66
REMARK   26  A    between atoms: _66  and  _67
REMARK   27  A    between atoms: _70  and  _72
REMARK   28  A    between atoms: _72  and  _73
REMARK   29  A    between atoms: _76  and  _78
REMARK   30  A    between atoms: _78  and  _79
REMARK   31  A    between atoms: _78  and  _81
REMARK   32  A    between atoms: _81  and  _82
REMARK   33  A    between atoms: _87  and  _88
REMARK   34  A    between atoms: _90  and  _92
REMARK   35  A    between atoms: _92  and  _93
REMARK   36  A    between atoms: _92  and  _95
REMARK   37  A    between atoms: _95  and  _96
REMARK   38  A    between atoms: _96  and  _97
REMARK   39  A    between atoms: _99  and  _101
REMARK   40  A    between atoms: _101  and  _102
REMARK   41  A    between atoms: _101  and  _104
REMARK   42  A    between atoms: _104  and  _105
REMARK   43  A    between atoms: _105  and  _106
REMARK   44  A    between atoms: _109  and  _111
REMARK   45  A    between atoms: _111  and  _112
REMARK   46  A    between atoms: _111  and  _114
REMARK   47  A    between atoms: _117  and  _119
REMARK   48  A    between atoms: _119  and  _120
REMARK   49  A    between atoms: _122  and  _124
REMARK   50  A    between atoms: _124  and  _125
REMARK   51  A    between atoms: _124  and  _127
REMARK   52  A    between atoms: _130  and  _132
REMARK   53  A    between atoms: _132  and  _133
REMARK   54  A    between atoms: _132  and  _135
REMARK   55  A    between atoms: _135  and  _136
REMARK   56  A    between atoms: _142  and  _144
REMARK   57  A    between atoms: _144  and  _145
REMARK   58  A    between atoms: _144  and  _147
REMARK   59  A    between atoms: _150  and  _152
REMARK   60  A    between atoms: _152  and  _153
REMARK   61  A    between atoms: _152  and  _155
REMARK   62  A    between atoms: _155  and  _156
REMARK   63  A    between atoms: _161  and  _162
REMARK   64  A    between atoms: _164  and  _166
REMARK   65  A    between atoms: _166  and  _167
REMARK   66  A    between atoms: _166  and  _169
REMARK   67  A    between atoms: _169  and  _170
REMARK   68  A    between atoms: _170  and  _171
REMARK   69  A    between atoms: _173  and  _175
REMARK   70  A    between atoms: _175  and  _176
REMARK   71  A    between atoms: _175  and  _178
REMARK   72  A    between atoms: _178  and  _179
REMARK   73  A    between atoms: _179  and  _180
REMARK   74  A    between atoms: _183  and  _185
REMARK   75  A    between atoms: _185  and  _186
REMARK   76  A    between atoms: _185  and  _188
REMARK   77  A    between atoms: _188  and  _189
REMARK   78  A    between atoms: _189  and  _190
REMARK   79  A    between atoms: _193  and  _195
REMARK   80  A    between atoms: _195  and  _196
REMARK   81  A    between atoms: _195  and  _198
REMARK   82  A    between atoms: _198  and  _199
REMARK   83  A    between atoms: _204  and  _205
REMARK   84  A    between atoms: _207  and  _209
REMARK   85  A    between atoms: _209  and  _210
REMARK   86  A    between atoms: _209  and  _212
REMARK   87  A    between atoms: _212  and  _213
REMARK   88  A    between atoms: _213  and  _214
REMARK   89  A    between atoms: _214  and  _215
REMARK   90  A    between atoms: _224  and  _226
REMARK   91  A    between atoms: _226  and  _227
REMARK   92  A    between atoms: _226  and  _229
REMARK   93  A    between atoms: _229  and  _230
REMARK   94  A    between atoms: _230  and  _231
REMARK   95  A    between atoms: _234  and  _236
REMARK   96  A    between atoms: _236  and  _237
REMARK   97  A    between atoms: _236  and  _239
REMARK   98  A    between atoms: _239  and  _240
REMARK   99  A    between atoms: _243  and  _245
REMARK  100  A    between atoms: _245  and  _246
REMARK  101  A    between atoms: _245  and  _248
REMARK  102  A    between atoms: _248  and  _249
REMARK  103  A    between atoms: _249  and  _250
REMARK  104  A    between atoms: _255  and  _257
REMARK  105  A    between atoms: _257  and  _258
REMARK  106  A    between atoms: _257  and  _260
REMARK  107  A    between atoms: _260  and  _261
REMARK  108  A    between atoms: _261  and  _262
REMARK  109  A    between atoms: _262  and  _263
REMARK  110  A    between atoms: _263  and  _264
REMARK  111  A    between atoms: _268  and  _270
REMARK  112  A    between atoms: _270  and  _271
REMARK  113  A    between atoms: _274  and  _276
REMARK  114  A    between atoms: _276  and  _277
REMARK  115  A    between atoms: _279  and  _281
REMARK  116  A    between atoms: _281  and  _282
REMARK  117  A    between atoms: _281  and  _284
REMARK  118  A    between atoms: _284  and  _285
REMARK  119  A    between atoms: _290  and  _292
REMARK  120  A    between atoms: _292  and  _293
REMARK  121  A    between atoms: _292  and  _295
REMARK  122  A    between atoms: _295  and  _296
REMARK  123  A    between atoms: _296  and  _297
REMARK  124  A    between atoms: _300  and  _302
REMARK  125  A    between atoms: _302  and  _303
REMARK  126  A    between atoms: _302  and  _305
REMARK  127  A    between atoms: _305  and  _306
REMARK  128  A    between atoms: _306  and  _307
REMARK  129  A    between atoms: _312  and  _314
REMARK  130  A    between atoms: _314  and  _315
REMARK  131  A    between atoms: _314  and  _317
REMARK  132  A    between atoms: _317  and  _318
REMARK  133  A    between atoms: _320  and  _322
REMARK  134  A    between atoms: _322  and  _323
REMARK  135  A    between atoms: _322  and  _325
REMARK  136  A    between atoms: _325  and  _326
REMARK  137  A    between atoms: _332  and  _334
REMARK  138  A    between atoms: _334  and  _335
REMARK  139  A    between atoms: _334  and  _337
REMARK  140  A    between atoms: _340  and  _342
REMARK  141  A    between atoms: _342  and  _343
REMARK  142  A    between atoms: _342  and  _345
REMARK  143  A    between atoms: _345  and  _346
REMARK  144  A    between atoms: _349  and  _351
REMARK  145  A    between atoms: _351  and  _352
REMARK  146  A    between atoms: _351  and  _354
REMARK  147  A    between atoms: _354  and  _355
REMARK  148  A    between atoms: _358  and  _360
REMARK  149  A    between atoms: _360  and  _361
REMARK  150  A    between atoms: _360  and  _363
REMARK  151  A    between atoms: _363  and  _364
REMARK  152  A    between atoms: _367  and  _369
REMARK  153  A    between atoms: _369  and  _370
REMARK  154  A    between atoms: _369  and  _372
REMARK  155  A    between atoms: _372  and  _373
REMARK  156  A    between atoms: _376  and  _378
REMARK  157  A    between atoms: _378  and  _379
REMARK  158  A    between atoms: _378  and  _381
REMARK  159  A    between atoms: _381  and  _382
REMARK  160  A    between atoms: _387  and  _388
REMARK  161  A    between atoms: _390  and  _392
REMARK  162  A    between atoms: _392  and  _393
REMARK  163  A    between atoms: _392  and  _395
REMARK  164  A    between atoms: _395  and  _396
REMARK  165  A    between atoms: _401  and  _402
REMARK  166  A    between atoms: _404  and  _406
REMARK  167  A    between atoms: _406  and  _407
REMARK  168  A    between atoms: _406  and  _409
REMARK  169  A    between atoms: _409  and  _410
REMARK  170  A    between atoms: _413  and  _415
REMARK  171  A    between atoms: _415  and  _416
REMARK  172  A    between atoms: _415  and  _418
REMARK  173  A    between atoms: _418  and  _419
REMARK  174  A    between atoms: _422  and  _424
REMARK  175  A    between atoms: _424  and  _425
REMARK  176  A    between atoms: _424  and  _427
REMARK  177  A    between atoms: _427  and  _428
REMARK  178  A    between atoms: _428  and  _429
REMARK  179  A    between atoms: _434  and  _436
REMARK  180  A    between atoms: _436  and  _437
REMARK  181  A    between atoms: _436  and  _439
REMARK  182  A    between atoms: _442  and  _444
REMARK  183  A    between atoms: _444  and  _445
REMARK  184  A    between atoms: _444  and  _447
REMARK  185  A    between atoms: _447  and  _448
REMARK  186  A    between atoms: _451  and  _453
REMARK  187  A    between atoms: _453  and  _454
REMARK  188  A    between atoms: _453  and  _456
REMARK  189  A    between atoms: _456  and  _457
REMARK  190  A    between atoms: _459  and  _461
REMARK  191  A    between atoms: _461  and  _462
REMARK  192  A    between atoms: _464  and  _466
REMARK  193  A    between atoms: _466  and  _467
REMARK  194  A    between atoms: _466  and  _469
REMARK  195  A    between atoms: _469  and  _470
REMARK  196  A    between atoms: _470  and  _802
REMARK  197  A    between atoms: _471  and  _473
REMARK  198  A    between atoms: _473  and  _474
REMARK  199  A    between atoms: _473  and  _476
REMARK  200  A    between atoms: _476  and  _477
REMARK  201  A    between atoms: _482  and  _483
REMARK  202  A    between atoms: _485  and  _487
REMARK  203  A    between atoms: _487  and  _488
REMARK  204  A    between atoms: _487  and  _490
REMARK  205  A    between atoms: _490  and  _491
REMARK  206  A    between atoms: _491  and  _492
REMARK  207  A    between atoms: _497  and  _499
REMARK  208  A    between atoms: _499  and  _500
REMARK  209  A    between atoms: _499  and  _502
REMARK  210  A    between atoms: _502  and  _503
REMARK  211  A    between atoms: _503  and  _504
REMARK  212  A    between atoms: _509  and  _511
REMARK  213  A    between atoms: _511  and  _512
REMARK  214  A    between atoms: _511  and  _514
REMARK  215  A    between atoms: _514  and  _515
REMARK  216  A    between atoms: _520  and  _521
REMARK  217  A    between atoms: _523  and  _525
REMARK  218  A    between atoms: _525  and  _526
REMARK  219  A    between atoms: _529  and  _531
REMARK  220  A    between atoms: _531  and  _532
REMARK  221  A    between atoms: _531  and  _534
REMARK  222  A    between atoms: _534  and  _535
REMARK  223  A    between atoms: _540  and  _541
REMARK  224  A    between atoms: _543  and  _545
REMARK  225  A    between atoms: _545  and  _546
REMARK  226  A    between atoms: _545  and  _548
REMARK  227  A    between atoms: _548  and  _549
REMARK  228  A    between atoms: _552  and  _554
REMARK  229  A    between atoms: _554  and  _555
REMARK  230  A    between atoms: _554  and  _557
REMARK  231  A    between atoms: _559  and  _561
REMARK  232  A    between atoms: _561  and  _562
REMARK  233  A    between atoms: _561  and  _564
REMARK  234  A    between atoms: _564  and  _565
REMARK  235  A    between atoms: _568  and  _570
REMARK  236  A    between atoms: _570  and  _571
REMARK  237  A    between atoms: _570  and  _573
REMARK  238  A    between atoms: _573  and  _574
REMARK  239  A    between atoms: _579  and  _580
REMARK  240  A    between atoms: _582  and  _584
REMARK  241  A    between atoms: _584  and  _585
REMARK  242  A    between atoms: _584  and  _587
REMARK  243  A    between atoms: _587  and  _588
REMARK  244  A    between atoms: _591  and  _593
REMARK  245  A    between atoms: _593  and  _594
REMARK  246  A    between atoms: _593  and  _596
REMARK  247  A    between atoms: _596  and  _597
REMARK  248  A    between atoms: _607  and  _609
REMARK  249  A    between atoms: _609  and  _610
REMARK  250  A    between atoms: _613  and  _615
REMARK  251  A    between atoms: _615  and  _616
REMARK  252  A    between atoms: _619  and  _621
REMARK  253  A    between atoms: _621  and  _622
REMARK  254  A    between atoms: _621  and  _624
REMARK  255  A    between atoms: _624  and  _625
REMARK  256  A    between atoms: _628  and  _630
REMARK  257  A    between atoms: _630  and  _631
REMARK  258  A    between atoms: _630  and  _633
REMARK  259  A    between atoms: _633  and  _634
REMARK  260  A    between atoms: _637  and  _639
REMARK  261  A    between atoms: _639  and  _640
REMARK  262  A    between atoms: _639  and  _642
REMARK  263  A    between atoms: _642  and  _643
REMARK  264  A    between atoms: _646  and  _648
REMARK  265  A    between atoms: _648  and  _649
REMARK  266  A    between atoms: _648  and  _651
REMARK  267  A    between atoms: _651  and  _652
REMARK  268  A    between atoms: _652  and  _653
REMARK  269  A    between atoms: _653  and  _654
REMARK  270  A    between atoms: _654  and  _655
REMARK  271  A    between atoms: _659  and  _661
REMARK  272  A    between atoms: _661  and  _662
REMARK  273  A    between atoms: _661  and  _664
REMARK  274  A    between atoms: _664  and  _665
REMARK  275  A    between atoms: _670  and  _672
REMARK  276  A    between atoms: _672  and  _673
REMARK  277  A    between atoms: _672  and  _675
REMARK  278  A    between atoms: _675  and  _676
REMARK  279  A    between atoms: _676  and  _677
REMARK  280  A    between atoms: _677  and  _678
REMARK  281  A    between atoms: _678  and  _679
REMARK  282  A    between atoms: _683  and  _685
REMARK  283  A    between atoms: _685  and  _686
REMARK  284  A    between atoms: _685  and  _688
REMARK  285  A    between atoms: _688  and  _689
REMARK  286  A    between atoms: _699  and  _701
REMARK  287  A    between atoms: _701  and  _702
REMARK  288  A    between atoms: _701  and  _704
REMARK  289  A    between atoms: _704  and  _705
REMARK  290  A    between atoms: _705  and  _706
REMARK  291  A    between atoms: _711  and  _713
REMARK  292  A    between atoms: _713  and  _714
REMARK  293  A    between atoms: _717  and  _719
REMARK  294  A    between atoms: _719  and  _720
REMARK  295  A    between atoms: _722  and  _724
REMARK  296  A    between atoms: _724  and  _725
REMARK  297  A    between atoms: _724  and  _727
REMARK  298  A    between atoms: _727  and  _728
REMARK  299  A    between atoms: _728  and  _729
REMARK  300  A    between atoms: _732  and  _734
REMARK  301  A    between atoms: _734  and  _735
REMARK  302  A    between atoms: _738  and  _740
REMARK  303  A    between atoms: _740  and  _741
REMARK  304  A    between atoms: _740  and  _743
REMARK  305  A    between atoms: _743  and  _744
REMARK  306  A    between atoms: _744  and  _745
REMARK  307  A    between atoms: _745  and  _746
REMARK  308  A    between atoms: _755  and  _757
REMARK  309  A    between atoms: _757  and  _758
REMARK  310  A    between atoms: _757  and  _760
REMARK  311  A    between atoms: _760  and  _761
REMARK  312  A    between atoms: _764  and  _766
REMARK  313  A    between atoms: _766  and  _767
REMARK  314  A    between atoms: _766  and  _769
REMARK  315  A    between atoms: _769  and  _770
REMARK  316  A    between atoms: _775  and  _776
REMARK  317  A    between atoms: _778  and  _780
REMARK  318  A    between atoms: _780  and  _781
REMARK  319  A    between atoms: _780  and  _783
REMARK  320  A    between atoms: _783  and  _784
REMARK  321  A    between atoms: _787  and  _789
REMARK  322  A    between atoms: _789  and  _790
REMARK  323  A    between atoms: _789  and  _792
REMARK  324  A    between atoms: _792  and  _793
REMARK  325  A    between atoms: _796  and  _798
REMARK  326  A    between atoms: _798  and  _799
REMARK  327  A    between atoms: _798  and  _801
REMARK  328  A    between atoms: _801  and  _802
REMARK  329  A    between atoms: _803  and  _805
REMARK  330  A    between atoms: _805  and  _806
REMARK  331  A    between atoms: _805  and  _808
REMARK  332  A    between atoms: _811  and  _813
REMARK  333  A    between atoms: _813  and  _814
REMARK  334  A    between atoms: _813  and  _816
REMARK  335  A    between atoms: _816  and  _817
REMARK  336  A    between atoms: _817  and  _818
REMARK  337  A    between atoms: _821  and  _823
REMARK  338  A    between atoms: _823  and  _824
REMARK  339  A    between atoms: _823  and  _826
REMARK  340  A    between atoms: _826  and  _827
REMARK  341  A    between atoms: _837  and  _839
REMARK  342  A    between atoms: _839  and  _840
REMARK  343  A    between atoms: _839  and  _842
REMARK  344  A    between atoms: _842  and  _843
REMARK  345  A    between atoms: _846  and  _848
REMARK  346  A    between atoms: _848  and  _849
REMARK  347  A    between atoms: _848  and  _851
REMARK  348  A    between atoms: _851  and  _852
REMARK  349  A    between atoms: _852  and  _853
REMARK  350  A    between atoms: _853  and  _854
REMARK  351  A    between atoms: _863  and  _865
REMARK  352  A    between atoms: _865  and  _866
REMARK  353  A    between atoms: _865  and  _868
REMARK  354  A    between atoms: _868  and  _869
REMARK  355  A    between atoms: _874  and  _875
REMARK                            x       y       z     vdW  Elec       q    Type
REMARK                         _______ _______ _______ _____ _____    ______ ____
ROOT
ATOM      1  O   HOH     1      60.015  29.075  -4.843  0.00  0.00    +0.000 OA
ENDROOT
TORSDOF 0
REMARK  Name = ../refined-set-2016/4pge/4pge_pocket.pdb
REMARK  355 active torsions:
REMARK  status: ('A' for Active; 'I' for Inactive)
REMARK    1  A    between atoms: _1  and  _3
REMARK    2  A    between atoms: _3  and  _4
REMARK    3  A    between atoms: _3  and  _6
REMARK    4  A    between atoms: _6  and  _7
REMARK    5  A    between atoms: _10  and  _12
REMARK    6  A    between atoms: _12  and  _13
REMARK    7  A    between atoms: _12  and  _15
REMARK    8  A    between atoms: _15  and  _16
REMARK    9  A    between atoms: _16  and  _17
REMARK   10  A    between atoms: _17  and  _18
REMARK   11  A    between atoms: _27  and  _29
REMARK   12  A    between atoms: _29  and  _30
REMARK   13  A    between atoms: _29  and  _32
REMARK   14  A    between atoms: _32  and  _33
REMARK   15  A    between atoms: _38  and  _39
REMARK   16  A    between atoms: _41  and  _43
REMARK   17  A    between atoms: _43  and  _44
REMARK   18  A    between atoms: _43  and  _46
REMARK   19  A    between atoms: _46  and  _47
REMARK   20  A    between atoms: _53  and  _55
REMARK   21  A    between atoms: _55  and  _56
REMARK   22  A    between atoms: _55  and  _58
REMARK   23  A    between atoms: _61  and  _63
REMARK   24  A    between atoms: _63  and  _64
REMARK   25  A    between atoms: _63  and  _66
REMARK   26  A    between atoms: _66  and  _67
REMARK   27  A    between atoms: _70  and  _72
REMARK   28  A    between atoms: _72  and  _73
REMARK   29  A    between atoms: _76  and  _78
REMARK   30  A    between atoms: _78  and  _79
REMARK   31  A    between atoms: _78  and  _81
REMARK   32  A    between atoms: _81  and  _82
REMARK   33  A    between atoms: _87  and  _88
REMARK   34  A    between atoms: _90  and  _92
REMARK   35  A    between atoms: _92  and  _93
REMARK   36  A    between atoms: _92  and  _95
REMARK   37  A    between atoms: _95  and  _96
REMARK   38  A    between atoms: _96  and  _97
REMARK   39  A    between atoms: _99  and  _101
REMARK   40  A    between atoms: _101  and  _102
REMARK   41  A    between atoms: _101  and  _104
REMARK   42  A    between atoms: _104  and  _105
REMARK   43  A    between atoms: _105  and  _106
REMARK   44  A    between atoms: _109  and  _111
REMARK   45  A    between atoms: _111  and  _112
REMARK   46  A    between atoms: _111  and  _114
REMARK   47  A    between atoms: _117  and  _119
REMARK   48  A    between atoms: _119  and  _120
REMARK   49  A    between atoms: _122  and  _124
REMARK   50  A    between atoms: _124  and  _125
REMARK   51  A    between atoms: _124  and  _127
REMARK   52  A    between atoms: _130  and  _132
REMARK   53  A    between atoms: _132  and  _133
REMARK   54  A    between atoms: _132  and  _135
REMARK   55  A    between atoms: _135  and  _136
REMARK   56  A    between atoms: _142  and  _144
REMARK   57  A    between atoms: _144  and  _145
REMARK   58  A    between atoms: _144  and  _147
REMARK   59  A    between atoms: _150  and  _152
REMARK   60  A    between atoms: _152  and  _153
REMARK   61  A    between atoms: _152  and  _155
REMARK   62  A    between atoms: _155  and  _156
REMARK   63  A    between atoms: _161  and  _162
REMARK   64  A    between atoms: _164  and  _166
REMARK   65  A    between atoms: _166  and  _167
REMARK   66  A    between atoms: _166  and  _169
REMARK   67  A    between atoms: _169  and  _170
REMARK   68  A    between atoms: _170  and  _171
REMARK   69  A    between atoms: _173  and  _175
REMARK   70  A    between atoms: _175  and  _176
REMARK   71  A    between atoms: _175  and  _178
REMARK   72  A    between atoms: _178  and  _179
REMARK   73  A    between atoms: _179  and  _180
REMARK   74  A    between atoms: _183  and  _185
REMARK   75  A    between atoms: _185  and  _186
REMARK   76  A    between atoms: _185  and  _188
REMARK   77  A    between atoms: _188  and  _189
REMARK   78  A    between atoms: _189  and  _190
REMARK   79  A    between atoms: _193  and  _195
REMARK   80  A    between atoms: _195  and  _196
REMARK   81  A    between atoms: _195  and  _198
REMARK   82  A    between atoms: _198  and  _199
REMARK   83  A    between atoms: _204  and  _205
REMARK   84  A    between atoms: _207  and  _209
REMARK   85  A    between atoms: _209  and  _210
REMARK   86  A    between atoms: _209  and  _212
REMARK   87  A    between atoms: _212  and  _213
REMARK   88  A    between atoms: _213  and  _214
REMARK   89  A    between atoms: _214  and  _215
REMARK   90  A    between atoms: _224  and  _226
REMARK   91  A    between atoms: _226  and  _227
REMARK   92  A    between atoms: _226  and  _229
REMARK   93  A    between atoms: _229  and  _230
REMARK   94  A    between atoms: _230  and  _231
REMARK   95  A    between atoms: _234  and  _236
REMARK   96  A    between atoms: _236  and  _237
REMARK   97  A    between atoms: _236  and  _239
REMARK   98  A    between atoms: _239  and  _240
REMARK   99  A    between atoms: _243  and  _245
REMARK  100  A    between atoms: _245  and  _246
REMARK  101  A    between atoms: _245  and  _248
REMARK  102  A    between atoms: _248  and  _249
REMARK  103  A    between atoms: _249  and  _250
REMARK  104  A    between atoms: _255  and  _257
REMARK  105  A    between atoms: _257  and  _258
REMARK  106  A    between atoms: _257  and  _260
REMARK  107  A    between atoms: _260  and  _261
REMARK  108  A    between atoms: _261  and  _262
REMARK  109  A    between atoms: _262  and  _263
REMARK  110  A    between atoms: _263  and  _264
REMARK  111  A    between atoms: _268  and  _270
REMARK  112  A    between atoms: _270  and  _271
REMARK  113  A    between atoms: _274  and  _276
REMARK  114  A    between atoms: _276  and  _277
REMARK  115  A    between atoms: _279  and  _281
REMARK  116  A    between atoms: _281  and  _282
REMARK  117  A    between atoms: _281  and  _284
REMARK  118  A    between atoms: _284  and  _285
REMARK  119  A    between atoms: _290  and  _292
REMARK  120  A    between atoms: _292  and  _293
REMARK  121  A    between atoms: _292  and  _295
REMARK  122  A    between atoms: _295  and  _296
REMARK  123  A    between atoms: _296  and  _297
REMARK  124  A    between atoms: _300  and  _302
REMARK  125  A    between atoms: _302  and  _303
REMARK  126  A    between atoms: _302  and  _305
REMARK  127  A    between atoms: _305  and  _306
REMARK  128  A    between atoms: _306  and  _307
REMARK  129  A    between atoms: _312  and  _314
REMARK  130  A    between atoms: _314  and  _315
REMARK  131  A    between atoms: _314  and  _317
REMARK  132  A    between atoms: _317  and  _318
REMARK  133  A    between atoms: _320  and  _322
REMARK  134  A    between atoms: _322  and  _323
REMARK  135  A    between atoms: _322  and  _325
REMARK  136  A    between atoms: _325  and  _326
REMARK  137  A    between atoms: _332  and  _334
REMARK  138  A    between atoms: _334  and  _335
REMARK  139  A    between atoms: _334  and  _337
REMARK  140  A    between atoms: _340  and  _342
REMARK  141  A    between atoms: _342  and  _343
REMARK  142  A    between atoms: _342  and  _345
REMARK  143  A    between atoms: _345  and  _346
REMARK  144  A    between atoms: _349  and  _351
REMARK  145  A    between atoms: _351  and  _352
REMARK  146  A    between atoms: _351  and  _354
REMARK  147  A    between atoms: _354  and  _355
REMARK  148  A    between atoms: _358  and  _360
REMARK  149  A    between atoms: _360  and  _361
REMARK  150  A    between atoms: _360  and  _363
REMARK  151  A    between atoms: _363  and  _364
REMARK  152  A    between atoms: _367  and  _369
REMARK  153  A    between atoms: _369  and  _370
REMARK  154  A    between atoms: _369  and  _372
REMARK  155  A    between atoms: _372  and  _373
REMARK  156  A    between atoms: _376  and  _378
REMARK  157  A    between atoms: _378  and  _379
REMARK  158  A    between atoms: _378  and  _381
REMARK  159  A    between atoms: _381  and  _382
REMARK  160  A    between atoms: _387  and  _388
REMARK  161  A    between atoms: _390  and  _392
REMARK  162  A    between atoms: _392  and  _393
REMARK  163  A    between atoms: _392  and  _395
REMARK  164  A    between atoms: _395  and  _396
REMARK  165  A    between atoms: _401  and  _402
REMARK  166  A    between atoms: _404  and  _406
REMARK  167  A    between atoms: _406  and  _407
REMARK  168  A    between atoms: _406  and  _409
REMARK  169  A    between atoms: _409  and  _410
REMARK  170  A    between atoms: _413  and  _415
REMARK  171  A    between atoms: _415  and  _416
REMARK  172  A    between atoms: _415  and  _418
REMARK  173  A    between atoms: _418  and  _419
REMARK  174  A    between atoms: _422  and  _424
REMARK  175  A    between atoms: _424  and  _425
REMARK  176  A    between atoms: _424  and  _427
REMARK  177  A    between atoms: _427  and  _428
REMARK  178  A    between atoms: _428  and  _429
REMARK  179  A    between atoms: _434  and  _436
REMARK  180  A    between atoms: _436  and  _437
REMARK  181  A    between atoms: _436  and  _439
REMARK  182  A    between atoms: _442  and  _444
REMARK  183  A    between atoms: _444  and  _445
REMARK  184  A    between atoms: _444  and  _447
REMARK  185  A    between atoms: _447  and  _448
REMARK  186  A    between atoms: _451  and  _453
REMARK  187  A    between atoms: _453  and  _454
REMARK  188  A    between atoms: _453  and  _456
REMARK  189  A    between atoms: _456  and  _457
REMARK  190  A    between atoms: _459  and  _461
REMARK  191  A    between atoms: _461  and  _462
REMARK  192  A    between atoms: _464  and  _466
REMARK  193  A    between atoms: _466  and  _467
REMARK  194  A    between atoms: _466  and  _469
REMARK  195  A    between atoms: _469  and  _470
REMARK  196  A    between atoms: _470  and  _802
REMARK  197  A    between atoms: _471  and  _473
REMARK  198  A    between atoms: _473  and  _474
REMARK  199  A    between atoms: _473  and  _476
REMARK  200  A    between atoms: _476  and  _477
REMARK  201  A    between atoms: _482  and  _483
REMARK  202  A    between atoms: _485  and  _487
REMARK  203  A    between atoms: _487  and  _488
REMARK  204  A    between atoms: _487  and  _490
REMARK  205  A    between atoms: _490  and  _491
REMARK  206  A    between atoms: _491  and  _492
REMARK  207  A    between atoms: _497  and  _499
REMARK  208  A    between atoms: _499  and  _500
REMARK  209  A    between atoms: _499  and  _502
REMARK  210  A    between atoms: _502  and  _503
REMARK  211  A    between atoms: _503  and  _504
REMARK  212  A    between atoms: _509  and  _511
REMARK  213  A    between atoms: _511  and  _512
REMARK  214  A    between atoms: _511  and  _514
REMARK  215  A    between atoms: _514  and  _515
REMARK  216  A    between atoms: _520  and  _521
REMARK  217  A    between atoms: _523  and  _525
REMARK  218  A    between atoms: _525  and  _526
REMARK  219  A    between atoms: _529  and  _531
REMARK  220  A    between atoms: _531  and  _532
REMARK  221  A    between atoms: _531  and  _534
REMARK  222  A    between atoms: _534  and  _535
REMARK  223  A    between atoms: _540  and  _541
REMARK  224  A    between atoms: _543  and  _545
REMARK  225  A    between atoms: _545  and  _546
REMARK  226  A    between atoms: _545  and  _548
REMARK  227  A    between atoms: _548  and  _549
REMARK  228  A    between atoms: _552  and  _554
REMARK  229  A    between atoms: _554  and  _555
REMARK  230  A    between atoms: _554  and  _557
REMARK  231  A    between atoms: _559  and  _561
REMARK  232  A    between atoms: _561  and  _562
REMARK  233  A    between atoms: _561  and  _564
REMARK  234  A    between atoms: _564  and  _565
REMARK  235  A    between atoms: _568  and  _570
REMARK  236  A    between atoms: _570  and  _571
REMARK  237  A    between atoms: _570  and  _573
REMARK  238  A    between atoms: _573  and  _574
REMARK  239  A    between atoms: _579  and  _580
REMARK  240  A    between atoms: _582  and  _584
REMARK  241  A    between atoms: _584  and  _585
REMARK  242  A    between atoms: _584  and  _587
REMARK  243  A    between atoms: _587  and  _588
REMARK  244  A    between atoms: _591  and  _593
REMARK  245  A    between atoms: _593  and  _594
REMARK  246  A    between atoms: _593  and  _596
REMARK  247  A    between atoms: _596  and  _597
REMARK  248  A    between atoms: _607  and  _609
REMARK  249  A    between atoms: _609  and  _610
REMARK  250  A    between atoms: _613  and  _615
REMARK  251  A    between atoms: _615  and  _616
REMARK  252  A    between atoms: _619  and  _621
REMARK  253  A    between atoms: _621  and  _622
REMARK  254  A    between atoms: _621  and  _624
REMARK  255  A    between atoms: _624  and  _625
REMARK  256  A    between atoms: _628  and  _630
REMARK  257  A    between atoms: _630  and  _631
REMARK  258  A    between atoms: _630  and  _633
REMARK  259  A    between atoms: _633  and  _634
REMARK  260  A    between atoms: _637  and  _639
REMARK  261  A    between atoms: _639  and  _640
REMARK  262  A    between atoms: _639  and  _642
REMARK  263  A    between atoms: _642  and  _643
REMARK  264  A    between atoms: _646  and  _648
REMARK  265  A    between atoms: _648  and  _649
REMARK  266  A    between atoms: _648  and  _651
REMARK  267  A    between atoms: _651  and  _652
REMARK  268  A    between atoms: _652  and  _653
REMARK  269  A    between atoms: _653  and  _654
REMARK  270  A    between atoms: _654  and  _655
REMARK  271  A    between atoms: _659  and  _661
REMARK  272  A    between atoms: _661  and  _662
REMARK  273  A    between atoms: _661  and  _664
REMARK  274  A    between atoms: _664  and  _665
REMARK  275  A    between atoms: _670  and  _672
REMARK  276  A    between atoms: _672  and  _673
REMARK  277  A    between atoms: _672  and  _675
REMARK  278  A    between atoms: _675  and  _676
REMARK  279  A    between atoms: _676  and  _677
REMARK  280  A    between atoms: _677  and  _678
REMARK  281  A    between atoms: _678  and  _679
REMARK  282  A    between atoms: _683  and  _685
REMARK  283  A    between atoms: _685  and  _686
REMARK  284  A    between atoms: _685  and  _688
REMARK  285  A    between atoms: _688  and  _689
REMARK  286  A    between atoms: _699  and  _701
REMARK  287  A    between atoms: _701  and  _702
REMARK  288  A    between atoms: _701  and  _704
REMARK  289  A    between atoms: _704  and  _705
REMARK  290  A    between atoms: _705  and  _706
REMARK  291  A    between atoms: _711  and  _713
REMARK  292  A    between atoms: _713  and  _714
REMARK  293  A    between atoms: _717  and  _719
REMARK  294  A    between atoms: _719  and  _720
REMARK  295  A    between atoms: _722  and  _724
REMARK  296  A    between atoms: _724  and  _725
REMARK  297  A    between atoms: _724  and  _727
REMARK  298  A    between atoms: _727  and  _728
REMARK  299  A    between atoms: _728  and  _729
REMARK  300  A    between atoms: _732  and  _734
REMARK  301  A    between atoms: _734  and  _735
REMARK  302  A    between atoms: _738  and  _740
REMARK  303  A    between atoms: _740  and  _741
REMARK  304  A    between atoms: _740  and  _743
REMARK  305  A    between atoms: _743  and  _744
REMARK  306  A    between atoms: _744  and  _745
REMARK  307  A    between atoms: _745  and  _746
REMARK  308  A    between atoms: _755  and  _757
REMARK  309  A    between atoms: _757  and  _758
REMARK  310  A    between atoms: _757  and  _760
REMARK  311  A    between atoms: _760  and  _761
REMARK  312  A    between atoms: _764  and  _766
REMARK  313  A    between atoms: _766  and  _767
REMARK  314  A    between atoms: _766  and  _769
REMARK  315  A    between atoms: _769  and  _770
REMARK  316  A    between atoms: _775  and  _776
REMARK  317  A    between atoms: _778  and  _780
REMARK  318  A    between atoms: _780  and  _781
REMARK  319  A    between atoms: _780  and  _783
REMARK  320  A    between atoms: _783  and  _784
REMARK  321  A    between atoms: _787  and  _789
REMARK  322  A    between atoms: _789  and  _790
REMARK  323  A    between atoms: _789  and  _792
REMARK  324  A    between atoms: _792  and  _793
REMARK  325  A    between atoms: _796  and  _798
REMARK  326  A    between atoms: _798  and  _799
REMARK  327  A    between atoms: _798  and  _801
REMARK  328  A    between atoms: _801  and  _802
REMARK  329  A    between atoms: _803  and  _805
REMARK  330  A    between atoms: _805  and  _806
REMARK  331  A    between atoms: _805  and  _808
REMARK  332  A    between atoms: _811  and  _813
REMARK  333  A    between atoms: _813  and  _814
REMARK  334  A    between atoms: _813  and  _816
REMARK  335  A    between atoms: _816  and  _817
REMARK  336  A    between atoms: _817  and  _818
REMARK  337  A    between atoms: _821  and  _823
REMARK  338  A    between atoms: _823  and  _824
REMARK  339  A    between atoms: _823  and  _826
REMARK  340  A    between atoms: _826  and  _827
REMARK  341  A    between atoms: _837  and  _839
REMARK  342  A    between atoms: _839  and  _840
REMARK  343  A    between atoms: _839  and  _842
REMARK  344  A    between atoms: _842  and  _843
REMARK  345  A    between atoms: _846  and  _848
REMARK  346  A    between atoms: _848  and  _849
REMARK  347  A    between atoms: _848  and  _851
REMARK  348  A    between atoms: _851  and  _852
REMARK  349  A    between atoms: _852  and  _853
REMARK  350  A    between atoms: _853  and  _854
REMARK  351  A    between atoms: _863  and  _865
REMARK  352  A    between atoms: _865  and  _866
REMARK  353  A    between atoms: _865  and  _868
REMARK  354  A    between atoms: _868  and  _869
REMARK  355  A    between atoms: _874  and  _875
REMARK                            x       y       z     vdW  Elec       q    Type
REMARK                         _______ _______ _______ _____ _____    ______ ____
ROOT
ATOM      1  O   HOH     1      58.324  22.444  -7.089  0.00  0.00    +0.000 OA
ENDROOT
TORSDOF 0
