REMARK  Name = ../refined-set-2016/3f70/3f70_pocket.pdb
REMARK  100 active torsions:
REMARK  status: ('A' for Active; 'I' for Inactive)
REMARK    1  A    between atoms: _1  and  _3
REMARK    2  A    between atoms: _3  and  _4
REMARK    3  A    between atoms: _7  and  _9
REMARK    4  A    between atoms: _9  and  _10
REMARK    5  A    between atoms: _9  and  _12
REMARK    6  A    between atoms: _15  and  _17
REMARK    7  A    between atoms: _17  and  _18
REMARK    8  A    between atoms: _17  and  _20
REMARK    9  A    between atoms: _20  and  _21
REMARK   10  A    between atoms: _24  and  _26
REMARK   11  A    between atoms: _26  and  _27
REMARK   12  A    between atoms: _26  and  _29
REMARK   13  A    between atoms: _29  and  _30
REMARK   14  A    between atoms: _33  and  _35
REMARK   15  A    between atoms: _35  and  _36
REMARK   16  A    between atoms: _35  and  _38
REMARK   17  A    between atoms: _38  and  _39
REMARK   18  A    between atoms: _39  and  _40
REMARK   19  A    between atoms: _42  and  _44
REMARK   20  A    between atoms: _44  and  _45
REMARK   21  A    between atoms: _44  and  _47
REMARK   22  A    between atoms: _47  and  _48
REMARK   23  A    between atoms: _48  and  _49
REMARK   24  A    between atoms: _52  and  _54
REMARK   25  A    between atoms: _54  and  _55
REMARK   26  A    between atoms: _54  and  _57
REMARK   27  A    between atoms: _57  and  _58
REMARK   28  A    between atoms: _58  and  _59
REMARK   29  A    between atoms: _59  and  _60
REMARK   30  A    between atoms: _69  and  _71
REMARK   31  A    between atoms: _71  and  _72
REMARK   32  A    between atoms: _71  and  _74
REMARK   33  A    between atoms: _74  and  _75
REMARK   34  A    between atoms: _78  and  _80
REMARK   35  A    between atoms: _80  and  _81
REMARK   36  A    between atoms: _80  and  _83
REMARK   37  A    between atoms: _83  and  _84
REMARK   38  A    between atoms: _87  and  _89
REMARK   39  A    between atoms: _89  and  _90
REMARK   40  A    between atoms: _89  and  _92
REMARK   41  A    between atoms: _94  and  _96
REMARK   42  A    between atoms: _96  and  _97
REMARK   43  A    between atoms: _96  and  _99
REMARK   44  A    between atoms: _102  and  _104
REMARK   45  A    between atoms: _104  and  _105
REMARK   46  A    between atoms: _108  and  _110
REMARK   47  A    between atoms: _110  and  _111
REMARK   48  A    between atoms: _110  and  _113
REMARK   49  A    between atoms: _113  and  _114
REMARK   50  A    between atoms: _119  and  _121
REMARK   51  A    between atoms: _121  and  _122
REMARK   52  A    between atoms: _121  and  _124
REMARK   53  A    between atoms: _124  and  _125
REMARK   54  A    between atoms: _131  and  _133
REMARK   55  A    between atoms: _133  and  _134
REMARK   56  A    between atoms: _133  and  _136
REMARK   57  A    between atoms: _136  and  _137
REMARK   58  A    between atoms: _140  and  _142
REMARK   59  A    between atoms: _142  and  _143
REMARK   60  A    between atoms: _145  and  _147
REMARK   61  A    between atoms: _147  and  _148
REMARK   62  A    between atoms: _147  and  _150
REMARK   63  A    between atoms: _150  and  _151
REMARK   64  A    between atoms: _161  and  _163
REMARK   65  A    between atoms: _163  and  _164
REMARK   66  A    between atoms: _163  and  _166
REMARK   67  A    between atoms: _166  and  _167
REMARK   68  A    between atoms: _170  and  _172
REMARK   69  A    between atoms: _172  and  _173
REMARK   70  A    between atoms: _172  and  _175
REMARK   71  A    between atoms: _175  and  _176
REMARK   72  A    between atoms: _181  and  _182
REMARK   73  A    between atoms: _184  and  _186
REMARK   74  A    between atoms: _186  and  _187
REMARK   75  A    between atoms: _186  and  _189
REMARK   76  A    between atoms: _189  and  _190
REMARK   77  A    between atoms: _193  and  _195
REMARK   78  A    between atoms: _195  and  _196
REMARK   79  A    between atoms: _195  and  _198
REMARK   80  A    between atoms: _198  and  _199
REMARK   81  A    between atoms: _199  and  _200
REMARK   82  A    between atoms: _205  and  _207
REMARK   83  A    between atoms: _207  and  _208
REMARK   84  A    between atoms: _207  and  _210
REMARK   85  A    between atoms: _210  and  _211
REMARK   86  A    between atoms: _211  and  _212
REMARK   87  A    between atoms: _218  and  _219
REMARK   88  A    between atoms: _224  and  _226
REMARK   89  A    between atoms: _226  and  _227
REMARK   90  A    between atoms: _226  and  _229
REMARK   91  A    between atoms: _232  and  _234
REMARK   92  A    between atoms: _234  and  _235
REMARK   93  A    between atoms: _238  and  _240
REMARK   94  A    between atoms: _240  and  _241
REMARK   95  A    between atoms: _244  and  _246
REMARK   96  A    between atoms: _246  and  _247
REMARK   97  A    between atoms: _246  and  _249
REMARK   98  A    between atoms: _249  and  _250
REMARK   99  A    between atoms: _250  and  _251
REMARK  100  A    between atoms: _255  and  _256
REMARK                            x       y       z     vdW  Elec       q    Type
REMARK                         _______ _______ _______ _____ _____    ______ ____
ROOT
ATOM      1  CA  LEU A   4      18.804  16.208 -54.790  0.00  0.00    +0.149 C 
ENDROOT
BRANCH   1   3
ATOM      2  C   ASP A   3      20.856  15.534 -55.882  0.00  0.00    +0.241 C 
ATOM      3  N   LEU A   4      20.042  15.452 -54.847  0.00  0.00    -0.297 N 
ATOM      4  H   LEU A   4      20.293  14.830 -54.052  0.00  0.00    +0.150 HD
ATOM      5  O   ASP A   3      20.796  16.420 -56.618  0.00  0.00    -0.273 OA
BRANCH   2   6
ATOM      6  CA  ASP A   3      21.876  14.441 -56.108  0.00  0.00    +0.160 C 
BRANCH   6   9
ATOM      7  C   VAL A   2      20.351  12.669 -56.976  0.00  0.00    +0.241 C 
ATOM      8  O   VAL A   2      19.984  12.269 -55.830  0.00  0.00    -0.273 OA
ATOM      9  N   ASP A   3      21.288  13.628 -57.191  0.00  0.00    -0.297 N 
ATOM     10  H   ASP A   3      21.607  13.798 -58.166  0.00  0.00    +0.150 HD
BRANCH   7  11
ATOM     11  CA  VAL A   2      19.752  12.002 -58.204  0.00  0.00    +0.148 C 
BRANCH  11  13
ATOM     12  C   ALA A   1      20.894   9.879 -57.881  0.00  0.00    +0.238 C 
ATOM     13  N   VAL A   2      19.755  10.555 -57.938  0.00  0.00    -0.297 N 
ATOM     14  H   VAL A   2      18.854  10.057 -57.793  0.00  0.00    +0.150 HD
ATOM     15  O   ALA A   1      21.986  10.364 -58.209  0.00  0.00    -0.274 OA
BRANCH  12  16
ATOM     16  CA  ALA A   1      20.786   8.423 -57.393  0.00  0.00    +0.145 C 
ATOM     17  CB  ALA A   1      21.118   8.273 -55.886  0.00  0.00    +0.028 C 
BRANCH  16  18
ATOM     18  N   ALA A   1      21.621   7.531 -58.201  0.00  0.00    -0.238 NA
ATOM     19  H   ALA A   1      22.651   7.669 -58.251  0.00  0.00    +0.142 HD
ENDBRANCH  16  18
ENDBRANCH  12  16
ENDBRANCH  11  13
BRANCH  11  20
ATOM     20  CB  VAL A   2      18.322  12.530 -58.331  0.00  0.00    +0.027 C 
ATOM     21  CG2 VAL A   2      18.322  14.023 -58.398  0.00  0.00    +0.002 C 
ATOM     22  CG1 VAL A   2      17.601  11.944 -59.533  0.00  0.00    +0.002 C 
ENDBRANCH  11  20
ENDBRANCH   7  11
ENDBRANCH   6   9
BRANCH   6  23
ATOM     23  CB  ASP A   3      23.232  15.053 -56.506  0.00  0.00    +0.143 C 
BRANCH  23  24
ATOM     24  CG  ASP A   3      23.799  16.079 -55.448  0.00  0.00    +0.367 C 
ATOM     25  OD2 ASP A   3      23.145  16.406 -54.460  0.00  0.00    -0.246 OA
ATOM     26  OD1 ASP A   3      24.948  16.588 -55.620  0.00  0.00    -0.246 OA
ENDBRANCH  23  24
ENDBRANCH   6  23
ENDBRANCH   2   6
ENDBRANCH   1   3
BRANCH   1  27
ATOM     27  C   LEU A   4      19.061  17.707 -54.499  0.00  0.00    +0.241 C 
ATOM     28  N   MET A   5      20.291  18.014 -54.118  0.00  0.00    -0.297 N 
ATOM     29  H   MET A   5      20.951  17.241 -53.899  0.00  0.00    +0.150 HD
ATOM     30  O   LEU A   4      18.160  18.532 -54.580  0.00  0.00    -0.273 OA
BRANCH  28  31
ATOM     31  CA  MET A   5      20.778  19.440 -53.988  0.00  0.00    +0.149 C 
BRANCH  31  32
ATOM     32  C   MET A   5      21.247  20.039 -55.288  0.00  0.00    +0.241 C 
ATOM     33  O   MET A   5      21.536  21.251 -55.337  0.00  0.00    -0.273 OA
ATOM     34  N   GLU A   6      21.357  19.193 -56.328  0.00  0.00    -0.298 N 
ATOM     35  H   GLU A   6      21.128  18.191 -56.171  0.00  0.00    +0.150 HD
BRANCH  34  36
ATOM     36  CA  GLU A   6      21.771  19.593 -57.639  0.00  0.00    +0.137 C 
BRANCH  36  37
ATOM     37  C   GLU A   6      21.257  18.520 -58.607  0.00  0.00    +0.227 C 
ATOM     38  O   GLU A   6      22.027  17.721 -59.128  0.00  0.00    -0.286 OA
ENDBRANCH  36  37
BRANCH  36  39
ATOM     39  CB  GLU A   6      23.291  19.653 -57.687  0.00  0.00    +0.039 C 
BRANCH  39  40
ATOM     40  CG  GLU A   6      23.827  20.568 -58.766  0.00  0.00    +0.116 C 
BRANCH  40  41
ATOM     41  CD  GLU A   6      25.357  20.722 -58.716  0.00  0.00    +0.365 C 
ATOM     42  OE2 GLU A   6      25.923  20.918 -57.599  0.00  0.00    -0.246 OA
ATOM     43  OE1 GLU A   6      25.968  20.655 -59.821  0.00  0.00    -0.246 OA
ENDBRANCH  40  41
ENDBRANCH  39  40
ENDBRANCH  36  39
ENDBRANCH  34  36
ENDBRANCH  31  32
BRANCH  31  44
ATOM     44  CB  MET A   5      21.948  19.545 -52.982  0.00  0.00    +0.041 C 
BRANCH  44  45
ATOM     45  CG  MET A   5      21.597  18.926 -51.600  0.00  0.00    +0.060 C 
BRANCH  45  46
ATOM     46  SD  MET A   5      20.323  19.764 -50.535  0.00  0.00    -0.139 S 
ATOM     47  CE  MET A   5      20.584  18.834 -49.025  0.00  0.00    +0.069 C 
ENDBRANCH  45  46
ENDBRANCH  44  45
ENDBRANCH  31  44
ENDBRANCH  28  31
ENDBRANCH   1  27
BRANCH   1  48
ATOM     48  CB  LEU A   4      17.891  15.561 -53.707  0.00  0.00    +0.029 C 
BRANCH  48  49
ATOM     49  CG  LEU A   4      16.991  14.408 -54.190  0.00  0.00    +0.002 C 
ATOM     50  CD2 LEU A   4      16.307  13.797 -52.993  0.00  0.00    +0.000 C 
ATOM     51  CD1 LEU A   4      15.977  15.009 -55.166  0.00  0.00    +0.000 C 
ENDBRANCH  48  49
ENDBRANCH   1  48
TORSDOF 23
REMARK  Name = ../refined-set-2016/3f70/3f70_pocket.pdb
REMARK  100 active torsions:
REMARK  status: ('A' for Active; 'I' for Inactive)
REMARK    1  A    between atoms: _1  and  _3
REMARK    2  A    between atoms: _3  and  _4
REMARK    3  A    between atoms: _7  and  _9
REMARK    4  A    between atoms: _9  and  _10
REMARK    5  A    between atoms: _9  and  _12
REMARK    6  A    between atoms: _15  and  _17
REMARK    7  A    between atoms: _17  and  _18
REMARK    8  A    between atoms: _17  and  _20
REMARK    9  A    between atoms: _20  and  _21
REMARK   10  A    between atoms: _24  and  _26
REMARK   11  A    between atoms: _26  and  _27
REMARK   12  A    between atoms: _26  and  _29
REMARK   13  A    between atoms: _29  and  _30
REMARK   14  A    between atoms: _33  and  _35
REMARK   15  A    between atoms: _35  and  _36
REMARK   16  A    between atoms: _35  and  _38
REMARK   17  A    between atoms: _38  and  _39
REMARK   18  A    between atoms: _39  and  _40
REMARK   19  A    between atoms: _42  and  _44
REMARK   20  A    between atoms: _44  and  _45
REMARK   21  A    between atoms: _44  and  _47
REMARK   22  A    between atoms: _47  and  _48
REMARK   23  A    between atoms: _48  and  _49
REMARK   24  A    between atoms: _52  and  _54
REMARK   25  A    between atoms: _54  and  _55
REMARK   26  A    between atoms: _54  and  _57
REMARK   27  A    between atoms: _57  and  _58
REMARK   28  A    between atoms: _58  and  _59
REMARK   29  A    between atoms: _59  and  _60
REMARK   30  A    between atoms: _69  and  _71
REMARK   31  A    between atoms: _71  and  _72
REMARK   32  A    between atoms: _71  and  _74
REMARK   33  A    between atoms: _74  and  _75
REMARK   34  A    between atoms: _78  and  _80
REMARK   35  A    between atoms: _80  and  _81
REMARK   36  A    between atoms: _80  and  _83
REMARK   37  A    between atoms: _83  and  _84
REMARK   38  A    between atoms: _87  and  _89
REMARK   39  A    between atoms: _89  and  _90
REMARK   40  A    between atoms: _89  and  _92
REMARK   41  A    between atoms: _94  and  _96
REMARK   42  A    between atoms: _96  and  _97
REMARK   43  A    between atoms: _96  and  _99
REMARK   44  A    between atoms: _102  and  _104
REMARK   45  A    between atoms: _104  and  _105
REMARK   46  A    between atoms: _108  and  _110
REMARK   47  A    between atoms: _110  and  _111
REMARK   48  A    between atoms: _110  and  _113
REMARK   49  A    between atoms: _113  and  _114
REMARK   50  A    between atoms: _119  and  _121
REMARK   51  A    between atoms: _121  and  _122
REMARK   52  A    between atoms: _121  and  _124
REMARK   53  A    between atoms: _124  and  _125
REMARK   54  A    between atoms: _131  and  _133
REMARK   55  A    between atoms: _133  and  _134
REMARK   56  A    between atoms: _133  and  _136
REMARK   57  A    between atoms: _136  and  _137
REMARK   58  A    between atoms: _140  and  _142
REMARK   59  A    between atoms: _142  and  _143
REMARK   60  A    between atoms: _145  and  _147
REMARK   61  A    between atoms: _147  and  _148
REMARK   62  A    between atoms: _147  and  _150
REMARK   63  A    between atoms: _150  and  _151
REMARK   64  A    between atoms: _161  and  _163
REMARK   65  A    between atoms: _163  and  _164
REMARK   66  A    between atoms: _163  and  _166
REMARK   67  A    between atoms: _166  and  _167
REMARK   68  A    between atoms: _170  and  _172
REMARK   69  A    between atoms: _172  and  _173
REMARK   70  A    between atoms: _172  and  _175
REMARK   71  A    between atoms: _175  and  _176
REMARK   72  A    between atoms: _181  and  _182
REMARK   73  A    between atoms: _184  and  _186
REMARK   74  A    between atoms: _186  and  _187
REMARK   75  A    between atoms: _186  and  _189
REMARK   76  A    between atoms: _189  and  _190
REMARK   77  A    between atoms: _193  and  _195
REMARK   78  A    between atoms: _195  and  _196
REMARK   79  A    between atoms: _195  and  _198
REMARK   80  A    between atoms: _198  and  _199
REMARK   81  A    between atoms: _199  and  _200
REMARK   82  A    between atoms: _205  and  _207
REMARK   83  A    between atoms: _207  and  _208
REMARK   84  A    between atoms: _207  and  _210
REMARK   85  A    between atoms: _210  and  _211
REMARK   86  A    between atoms: _211  and  _212
REMARK   87  A    between atoms: _218  and  _219
REMARK   88  A    between atoms: _224  and  _226
REMARK   89  A    between atoms: _226  and  _227
REMARK   90  A    between atoms: _226  and  _229
REMARK   91  A    between atoms: _232  and  _234
REMARK   92  A    between atoms: _234  and  _235
REMARK   93  A    between atoms: _238  and  _240
REMARK   94  A    between atoms: _240  and  _241
REMARK   95  A    between atoms: _244  and  _246
REMARK   96  A    between atoms: _246  and  _247
REMARK   97  A    between atoms: _246  and  _249
REMARK   98  A    between atoms: _249  and  _250
REMARK   99  A    between atoms: _250  and  _251
REMARK  100  A    between atoms: _255  and  _256
REMARK                            x       y       z     vdW  Elec       q    Type
REMARK                         _______ _______ _______ _____ _____    ______ ____
ROOT
ATOM      1  C   LEU A   2      22.702  13.952 -61.004  0.00  0.00    +0.241 C 
ATOM      2  O   LEU A   2      21.892  13.948 -60.064  0.00  0.00    -0.273 OA
ATOM      3  N   ILE A   3      23.035  12.863 -61.737  0.00  0.00    -0.297 N 
ATOM      4  H   ILE A   3      23.608  12.985 -62.596  0.00  0.00    +0.150 HD
ENDROOT
BRANCH   1   5
ATOM      5  CA  LEU A   2      23.332  15.290 -61.414  0.00  0.00    +0.149 C 
BRANCH   5   7
ATOM      6  C   ARG A   1      21.713  16.498 -62.760  0.00  0.00    +0.238 C 
ATOM      7  N   LEU A   2      22.303  16.338 -61.573  0.00  0.00    -0.297 N 
ATOM      8  H   LEU A   2      22.041  16.944 -60.770  0.00  0.00    +0.150 HD
ATOM      9  O   ARG A   1      21.921  15.717 -63.730  0.00  0.00    -0.274 OA
BRANCH   6  10
ATOM     10  CA  ARG A   1      20.694  17.640 -62.842  0.00  0.00    +0.145 C 
BRANCH  10  11
ATOM     11  N   ARG A   1      20.230  17.964 -61.481  0.00  0.00    -0.238 NA
ATOM     12  H   ARG A   1      20.583  18.826 -61.018  0.00  0.00    +0.142 HD
ENDBRANCH  10  11
BRANCH  10  13
ATOM     13  CB  ARG A   1      21.272  18.850 -63.540  0.00  0.00    +0.030 C 
BRANCH  13  14
ATOM     14  CG  ARG A   1      22.805  18.943 -63.604  0.00  0.00    +0.045 C 
BRANCH  14  15
ATOM     15  CD  ARG A   1      23.369  20.297 -64.249  0.00  0.00    +0.174 C 
BRANCH  15  16
ATOM     16  NE  ARG A   1      24.548  20.699 -63.483  0.00  0.00    -0.265 N 
ATOM     17  HE  ARG A   1      24.396  21.245 -62.611  0.00  0.00    +0.259 HD
ATOM     18  CZ  ARG A   1      25.801  20.414 -63.826  0.00  0.00    +0.342 C 
ATOM     19  NH2 ARG A   1      26.783  20.772 -62.994  0.00  0.00    -0.292 N 
ATOM     20 HH21 ARG A   1      26.558  21.261 -62.104  0.00  0.00    +0.255 HD
ATOM     21 HH22 ARG A   1      27.772  20.562 -63.236  0.00  0.00    +0.255 HD
ATOM     22  NH1 ARG A   1      26.086  19.827 -65.006  0.00  0.00    -0.292 N 
ATOM     23 HH11 ARG A   1      27.073  19.612 -65.255  0.00  0.00    +0.255 HD
ATOM     24 HH12 ARG A   1      25.319  19.589 -65.667  0.00  0.00    +0.255 HD
ENDBRANCH  15  16
ENDBRANCH  14  15
ENDBRANCH  13  14
ENDBRANCH  10  13
ENDBRANCH   6  10
ENDBRANCH   5   7
BRANCH   5  25
ATOM     25  CB  LEU A   2      24.398  15.704 -60.385  0.00  0.00    +0.029 C 
BRANCH  25  26
ATOM     26  CG  LEU A   2      25.087  17.013 -60.600  0.00  0.00    +0.002 C 
ATOM     27  CD2 LEU A   2      26.119  17.138 -59.501  0.00  0.00    +0.000 C 
ATOM     28  CD1 LEU A   2      25.735  17.004 -61.998  0.00  0.00    +0.000 C 
ENDBRANCH  25  26
ENDBRANCH   5  25
ENDBRANCH   1   5
BRANCH   3  29
ATOM     29  CA  ILE A   3      22.601  11.501 -61.343  0.00  0.00    +0.149 C 
BRANCH  29  30
ATOM     30  C   ILE A   3      23.915  10.773 -61.211  0.00  0.00    +0.241 C 
ATOM     31  N   CYS A   4      24.107  10.162 -60.034  0.00  0.00    -0.296 N 
ATOM     32  H   CYS A   4      23.286  10.009 -59.414  0.00  0.00    +0.150 HD
ATOM     33  O   ILE A   3      24.755  10.840 -62.136  0.00  0.00    -0.273 OA
BRANCH  31  34
ATOM     34  CA  CYS A   4      25.442   9.693 -59.574  0.00  0.00    +0.160 C 
BRANCH  34  35
ATOM     35  C   CYS A   4      25.445   8.228 -59.133  0.00  0.00    +0.242 C 
ATOM     36  O   CYS A   4      24.390   7.713 -58.704  0.00  0.00    -0.273 OA
ATOM     37  N   VAL A   5      26.632   7.592 -59.196  0.00  0.00    -0.297 N 
ATOM     38  H   VAL A   5      27.452   8.110 -59.570  0.00  0.00    +0.150 HD
BRANCH  37  39
ATOM     39  CA  VAL A   5      26.822   6.198 -58.760  0.00  0.00    +0.149 C 
BRANCH  39  40
ATOM     40  C   VAL A   5      26.591   6.291 -57.197  0.00  0.00    +0.241 C 
ATOM     41  O   VAL A   5      27.019   7.232 -56.554  0.00  0.00    -0.273 OA
ATOM     42  N   ALA A   6      25.905   5.346 -56.601  0.00  0.00    -0.298 N 
ATOM     43  H   ALA A   6      25.661   4.479 -57.120  0.00  0.00    +0.150 HD
BRANCH  42  44
ATOM     44  CA  ALA A   6      25.491   5.500 -55.244  0.00  0.00    +0.137 C 
ATOM     45  CB  ALA A   6      24.247   6.489 -55.156  0.00  0.00    +0.030 C 
BRANCH  44  46
ATOM     46  C   ALA A   6      25.200   4.123 -54.649  0.00  0.00    +0.227 C 
ATOM     47  O   ALA A   6      25.167   3.087 -55.357  0.00  0.00    -0.286 OA
ENDBRANCH  44  46
ENDBRANCH  42  44
ENDBRANCH  39  40
BRANCH  39  48
ATOM     48  CB  VAL A   5      28.236   5.779 -59.070  0.00  0.00    +0.027 C 
ATOM     49  CG2 VAL A   5      28.639   4.584 -58.261  0.00  0.00    +0.002 C 
ATOM     50  CG1 VAL A   5      28.511   5.713 -60.598  0.00  0.00    +0.002 C 
ENDBRANCH  39  48
ENDBRANCH  37  39
ENDBRANCH  34  35
BRANCH  34  51
ATOM     51  CB  CYS A   4      25.888  10.539 -58.397  0.00  0.00    +0.098 C 
ATOM     52  SG  CYS A   4      25.411  12.231 -58.599  0.00  0.00    -0.080 S 
ENDBRANCH  34  51
ENDBRANCH  31  34
ENDBRANCH  29  30
BRANCH  29  53
ATOM     53  CB  ILE A   3      21.663  10.868 -62.385  0.00  0.00    +0.027 C 
ATOM     54  CG2 ILE A   3      21.403   9.313 -62.032  0.00  0.00    +0.002 C 
BRANCH  53  55
ATOM     55  CG1 ILE A   3      20.325  11.699 -62.381  0.00  0.00    +0.002 C 
ATOM     56  CD1 ILE A   3      19.248  11.147 -63.386  0.00  0.00    +0.000 C 
ENDBRANCH  53  55
ENDBRANCH  29  53
ENDBRANCH   3  29
TORSDOF 22
REMARK  Name = ../refined-set-2016/3f70/3f70_pocket.pdb
REMARK  100 active torsions:
REMARK  status: ('A' for Active; 'I' for Inactive)
REMARK    1  A    between atoms: _1  and  _3
REMARK    2  A    between atoms: _3  and  _4
REMARK    3  A    between atoms: _7  and  _9
REMARK    4  A    between atoms: _9  and  _10
REMARK    5  A    between atoms: _9  and  _12
REMARK    6  A    between atoms: _15  and  _17
REMARK    7  A    between atoms: _17  and  _18
REMARK    8  A    between atoms: _17  and  _20
REMARK    9  A    between atoms: _20  and  _21
REMARK   10  A    between atoms: _24  and  _26
REMARK   11  A    between atoms: _26  and  _27
REMARK   12  A    between atoms: _26  and  _29
REMARK   13  A    between atoms: _29  and  _30
REMARK   14  A    between atoms: _33  and  _35
REMARK   15  A    between atoms: _35  and  _36
REMARK   16  A    between atoms: _35  and  _38
REMARK   17  A    between atoms: _38  and  _39
REMARK   18  A    between atoms: _39  and  _40
REMARK   19  A    between atoms: _42  and  _44
REMARK   20  A    between atoms: _44  and  _45
REMARK   21  A    between atoms: _44  and  _47
REMARK   22  A    between atoms: _47  and  _48
REMARK   23  A    between atoms: _48  and  _49
REMARK   24  A    between atoms: _52  and  _54
REMARK   25  A    between atoms: _54  and  _55
REMARK   26  A    between atoms: _54  and  _57
REMARK   27  A    between atoms: _57  and  _58
REMARK   28  A    between atoms: _58  and  _59
REMARK   29  A    between atoms: _59  and  _60
REMARK   30  A    between atoms: _69  and  _71
REMARK   31  A    between atoms: _71  and  _72
REMARK   32  A    between atoms: _71  and  _74
REMARK   33  A    between atoms: _74  and  _75
REMARK   34  A    between atoms: _78  and  _80
REMARK   35  A    between atoms: _80  and  _81
REMARK   36  A    between atoms: _80  and  _83
REMARK   37  A    between atoms: _83  and  _84
REMARK   38  A    between atoms: _87  and  _89
REMARK   39  A    between atoms: _89  and  _90
REMARK   40  A    between atoms: _89  and  _92
REMARK   41  A    between atoms: _94  and  _96
REMARK   42  A    between atoms: _96  and  _97
REMARK   43  A    between atoms: _96  and  _99
REMARK   44  A    between atoms: _102  and  _104
REMARK   45  A    between atoms: _104  and  _105
REMARK   46  A    between atoms: _108  and  _110
REMARK   47  A    between atoms: _110  and  _111
REMARK   48  A    between atoms: _110  and  _113
REMARK   49  A    between atoms: _113  and  _114
REMARK   50  A    between atoms: _119  and  _121
REMARK   51  A    between atoms: _121  and  _122
REMARK   52  A    between atoms: _121  and  _124
REMARK   53  A    between atoms: _124  and  _125
REMARK   54  A    between atoms: _131  and  _133
REMARK   55  A    between atoms: _133  and  _134
REMARK   56  A    between atoms: _133  and  _136
REMARK   57  A    between atoms: _136  and  _137
REMARK   58  A    between atoms: _140  and  _142
REMARK   59  A    between atoms: _142  and  _143
REMARK   60  A    between atoms: _145  and  _147
REMARK   61  A    between atoms: _147  and  _148
REMARK   62  A    between atoms: _147  and  _150
REMARK   63  A    between atoms: _150  and  _151
REMARK   64  A    between atoms: _161  and  _163
REMARK   65  A    between atoms: _163  and  _164
REMARK   66  A    between atoms: _163  and  _166
REMARK   67  A    between atoms: _166  and  _167
REMARK   68  A    between atoms: _170  and  _172
REMARK   69  A    between atoms: _172  and  _173
REMARK   70  A    between atoms: _172  and  _175
REMARK   71  A    between atoms: _175  and  _176
REMARK   72  A    between atoms: _181  and  _182
REMARK   73  A    between atoms: _184  and  _186
REMARK   74  A    between atoms: _186  and  _187
REMARK   75  A    between atoms: _186  and  _189
REMARK   76  A    between atoms: _189  and  _190
REMARK   77  A    between atoms: _193  and  _195
REMARK   78  A    between atoms: _195  and  _196
REMARK   79  A    between atoms: _195  and  _198
REMARK   80  A    between atoms: _198  and  _199
REMARK   81  A    between atoms: _199  and  _200
REMARK   82  A    between atoms: _205  and  _207
REMARK   83  A    between atoms: _207  and  _208
REMARK   84  A    between atoms: _207  and  _210
REMARK   85  A    between atoms: _210  and  _211
REMARK   86  A    between atoms: _211  and  _212
REMARK   87  A    between atoms: _218  and  _219
REMARK   88  A    between atoms: _224  and  _226
REMARK   89  A    between atoms: _226  and  _227
REMARK   90  A    between atoms: _226  and  _229
REMARK   91  A    between atoms: _232  and  _234
REMARK   92  A    between atoms: _234  and  _235
REMARK   93  A    between atoms: _238  and  _240
REMARK   94  A    between atoms: _240  and  _241
REMARK   95  A    between atoms: _244  and  _246
REMARK   96  A    between atoms: _246  and  _247
REMARK   97  A    between atoms: _246  and  _249
REMARK   98  A    between atoms: _249  and  _250
REMARK   99  A    between atoms: _250  and  _251
REMARK  100  A    between atoms: _255  and  _256
REMARK                            x       y       z     vdW  Elec       q    Type
REMARK                         _______ _______ _______ _____ _____    ______ ____
ROOT
ATOM      1  C   ASP A   3      31.506   7.808 -54.208  0.00  0.00    +0.241 C 
ATOM      2  N   GLY A   4      32.539   7.990 -53.362  0.00  0.00    -0.295 N 
ATOM      3  H   GLY A   4      32.561   7.449 -52.474  0.00  0.00    +0.150 HD
ATOM      4  O   ASP A   3      31.341   8.460 -55.259  0.00  0.00    -0.273 OA
ENDROOT
BRANCH   2   5
ATOM      5  CA  GLY A   4      33.649   8.936 -53.652  0.00  0.00    +0.176 C 
BRANCH   5   6
ATOM      6  C   GLY A   4      33.481  10.253 -52.916  0.00  0.00    +0.243 C 
ATOM      7  N   TRP A   5      32.301  10.477 -52.348  0.00  0.00    -0.297 N 
ATOM      8  H   TRP A   5      31.549   9.765 -52.443  0.00  0.00    +0.150 HD
ATOM      9  O   GLY A   4      34.368  11.081 -52.926  0.00  0.00    -0.273 OA
BRANCH   7  10
ATOM     10  CA  TRP A   5      32.041  11.669 -51.611  0.00  0.00    +0.153 C 
BRANCH  10  11
ATOM     11  C   TRP A   5      31.911  11.395 -50.096  0.00  0.00    +0.241 C 
ATOM     12  N   ASP A   6      32.085  12.471 -49.341  0.00  0.00    -0.298 N 
ATOM     13  H   ASP A   6      32.271  13.374 -49.821  0.00  0.00    +0.150 HD
ATOM     14  O   TRP A   5      31.634  10.276 -49.645  0.00  0.00    -0.273 OA
BRANCH  12  15
ATOM     15  CA  ASP A   6      32.034  12.475 -47.894  0.00  0.00    +0.148 C 
BRANCH  15  16
ATOM     16  C   ASP A   6      30.644  12.129 -47.434  0.00  0.00    +0.227 C 
ATOM     17  O   ASP A   6      29.689  12.335 -48.167  0.00  0.00    -0.286 OA
ENDBRANCH  15  16
BRANCH  15  18
ATOM     18  CB  ASP A   6      32.389  13.901 -47.430  0.00  0.00    +0.142 C 
BRANCH  18  19
ATOM     19  CG  ASP A   6      32.833  13.966 -45.994  0.00  0.00    +0.367 C 
ATOM     20  OD2 ASP A   6      32.097  13.498 -45.073  0.00  0.00    -0.246 OA
ATOM     21  OD1 ASP A   6      33.945  14.529 -45.775  0.00  0.00    -0.246 OA
ENDBRANCH  18  19
ENDBRANCH  15  18
ENDBRANCH  12  15
ENDBRANCH  10  11
BRANCH  10  22
ATOM     22  CB  TRP A   5      30.773  12.371 -52.080  0.00  0.00    +0.057 C 
BRANCH  22  23
ATOM     23  CG  TRP A   5      30.807  12.746 -53.513  0.00  0.00    -0.002 A 
ATOM     24  CD2 TRP A   5      31.188  14.017 -54.068  0.00  0.00    +0.013 A 
ATOM     25  CE3 TRP A   5      31.596  15.238 -53.522  0.00  0.00    +0.001 A 
ATOM     26  CZ3 TRP A   5      31.877  16.310 -54.393  0.00  0.00    +0.000 A 
ATOM     27  CH2 TRP A   5      31.725  16.171 -55.788  0.00  0.00    +0.001 A 
ATOM     28  CZ2 TRP A   5      31.303  14.986 -56.355  0.00  0.00    +0.017 A 
ATOM     29  CE2 TRP A   5      31.000  13.920 -55.471  0.00  0.00    +0.056 A 
ATOM     30  NE1 TRP A   5      30.570  12.647 -55.726  0.00  0.00    -0.352 N 
ATOM     31  HE1 TRP A   5      30.354  12.267 -56.670  0.00  0.00    +0.166 HD
ATOM     32  CD1 TRP A   5      30.468  11.960 -54.574  0.00  0.00    +0.068 A 
ENDBRANCH  22  23
ENDBRANCH  10  22
ENDBRANCH   7  10
ENDBRANCH   5   6
ENDBRANCH   2   5
BRANCH   1  33
ATOM     33  CA  ASP A   3      30.501   6.759 -53.811  0.00  0.00    +0.160 C 
BRANCH  33  36
ATOM     34  C   PHE A   2      28.870   8.457 -53.148  0.00  0.00    +0.241 C 
ATOM     35  O   PHE A   2      29.648   9.042 -52.454  0.00  0.00    -0.273 OA
ATOM     36  N   ASP A   3      29.146   7.329 -53.779  0.00  0.00    -0.297 N 
ATOM     37  H   ASP A   3      28.378   6.827 -54.270  0.00  0.00    +0.150 HD
BRANCH  34  38
ATOM     38  CA  PHE A   2      27.458   8.887 -53.162  0.00  0.00    +0.153 C 
BRANCH  38  40
ATOM     39  C   HIS A   1      26.264   7.514 -51.496  0.00  0.00    +0.239 C 
ATOM     40  N   PHE A   2      26.982   8.624 -51.809  0.00  0.00    -0.297 N 
ATOM     41  H   PHE A   2      27.200   9.310 -51.058  0.00  0.00    +0.150 HD
ATOM     42  O   HIS A   1      26.069   6.623 -52.283  0.00  0.00    -0.274 OA
BRANCH  39  43
ATOM     43  CA  HIS A   1      25.725   7.368 -50.035  0.00  0.00    +0.151 C 
BRANCH  43  44
ATOM     44  N   HIS A   1      24.337   6.920 -50.015  0.00  0.00    -0.238 NA
ATOM     45  H   HIS A   1      24.162   5.906 -50.168  0.00  0.00    +0.142 HD
ENDBRANCH  43  44
BRANCH  43  46
ATOM     46  CB  HIS A   1      26.604   6.356 -49.270  0.00  0.00    +0.074 C 
BRANCH  46  47
ATOM     47  CG  HIS A   1      28.063   6.717 -49.281  0.00  0.00    +0.082 A 
ATOM     48  ND1 HIS A   1      28.571   7.767 -48.542  0.00  0.00    -0.227 NA
ATOM     49  CE1 HIS A   1      29.874   7.886 -48.776  0.00  0.00    +0.199 A 
ATOM     50  NE2 HIS A   1      30.230   6.936 -49.624  0.00  0.00    -0.221 NA
ATOM     51  CD2 HIS A   1      29.104   6.231 -50.000  0.00  0.00    +0.115 A 
ENDBRANCH  46  47
ENDBRANCH  43  46
ENDBRANCH  39  43
ENDBRANCH  38  40
BRANCH  38  52
ATOM     52  CB  PHE A   2      27.300  10.374 -53.490  0.00  0.00    +0.055 C 
BRANCH  52  53
ATOM     53  CG  PHE A   2      25.851  10.786 -53.681  0.00  0.00    -0.020 A 
ATOM     54  CD2 PHE A   2      25.101  11.317 -52.613  0.00  0.00    -0.004 A 
ATOM     55  CE2 PHE A   2      23.717  11.680 -52.779  0.00  0.00    -0.000 A 
ATOM     56  CZ  PHE A   2      23.045  11.453 -54.044  0.00  0.00    -0.000 A 
ATOM     57  CE1 PHE A   2      23.797  10.869 -55.105  0.00  0.00    -0.000 A 
ATOM     58  CD1 PHE A   2      25.220  10.553 -54.892  0.00  0.00    -0.004 A 
ENDBRANCH  52  53
ENDBRANCH  38  52
ENDBRANCH  34  38
ENDBRANCH  33  36
BRANCH  33  59
ATOM     59  CB  ASP A   3      30.590   5.590 -54.801  0.00  0.00    +0.143 C 
BRANCH  59  60
ATOM     60  CG  ASP A   3      29.662   4.390 -54.436  0.00  0.00    +0.367 C 
ATOM     61  OD2 ASP A   3      28.482   4.640 -54.049  0.00  0.00    -0.246 OA
ATOM     62  OD1 ASP A   3      30.123   3.203 -54.532  0.00  0.00    -0.246 OA
ENDBRANCH  59  60
ENDBRANCH  33  59
ENDBRANCH   1  33
TORSDOF 22
REMARK  Name = ../refined-set-2016/3f70/3f70_pocket.pdb
REMARK  100 active torsions:
REMARK  status: ('A' for Active; 'I' for Inactive)
REMARK    1  A    between atoms: _1  and  _3
REMARK    2  A    between atoms: _3  and  _4
REMARK    3  A    between atoms: _7  and  _9
REMARK    4  A    between atoms: _9  and  _10
REMARK    5  A    between atoms: _9  and  _12
REMARK    6  A    between atoms: _15  and  _17
REMARK    7  A    between atoms: _17  and  _18
REMARK    8  A    between atoms: _17  and  _20
REMARK    9  A    between atoms: _20  and  _21
REMARK   10  A    between atoms: _24  and  _26
REMARK   11  A    between atoms: _26  and  _27
REMARK   12  A    between atoms: _26  and  _29
REMARK   13  A    between atoms: _29  and  _30
REMARK   14  A    between atoms: _33  and  _35
REMARK   15  A    between atoms: _35  and  _36
REMARK   16  A    between atoms: _35  and  _38
REMARK   17  A    between atoms: _38  and  _39
REMARK   18  A    between atoms: _39  and  _40
REMARK   19  A    between atoms: _42  and  _44
REMARK   20  A    between atoms: _44  and  _45
REMARK   21  A    between atoms: _44  and  _47
REMARK   22  A    between atoms: _47  and  _48
REMARK   23  A    between atoms: _48  and  _49
REMARK   24  A    between atoms: _52  and  _54
REMARK   25  A    between atoms: _54  and  _55
REMARK   26  A    between atoms: _54  and  _57
REMARK   27  A    between atoms: _57  and  _58
REMARK   28  A    between atoms: _58  and  _59
REMARK   29  A    between atoms: _59  and  _60
REMARK   30  A    between atoms: _69  and  _71
REMARK   31  A    between atoms: _71  and  _72
REMARK   32  A    between atoms: _71  and  _74
REMARK   33  A    between atoms: _74  and  _75
REMARK   34  A    between atoms: _78  and  _80
REMARK   35  A    between atoms: _80  and  _81
REMARK   36  A    between atoms: _80  and  _83
REMARK   37  A    between atoms: _83  and  _84
REMARK   38  A    between atoms: _87  and  _89
REMARK   39  A    between atoms: _89  and  _90
REMARK   40  A    between atoms: _89  and  _92
REMARK   41  A    between atoms: _94  and  _96
REMARK   42  A    between atoms: _96  and  _97
REMARK   43  A    between atoms: _96  and  _99
REMARK   44  A    between atoms: _102  and  _104
REMARK   45  A    between atoms: _104  and  _105
REMARK   46  A    between atoms: _108  and  _110
REMARK   47  A    between atoms: _110  and  _111
REMARK   48  A    between atoms: _110  and  _113
REMARK   49  A    between atoms: _113  and  _114
REMARK   50  A    between atoms: _119  and  _121
REMARK   51  A    between atoms: _121  and  _122
REMARK   52  A    between atoms: _121  and  _124
REMARK   53  A    between atoms: _124  and  _125
REMARK   54  A    between atoms: _131  and  _133
REMARK   55  A    between atoms: _133  and  _134
REMARK   56  A    between atoms: _133  and  _136
REMARK   57  A    between atoms: _136  and  _137
REMARK   58  A    between atoms: _140  and  _142
REMARK   59  A    between atoms: _142  and  _143
REMARK   60  A    between atoms: _145  and  _147
REMARK   61  A    between atoms: _147  and  _148
REMARK   62  A    between atoms: _147  and  _150
REMARK   63  A    between atoms: _150  and  _151
REMARK   64  A    between atoms: _161  and  _163
REMARK   65  A    between atoms: _163  and  _164
REMARK   66  A    between atoms: _163  and  _166
REMARK   67  A    between atoms: _166  and  _167
REMARK   68  A    between atoms: _170  and  _172
REMARK   69  A    between atoms: _172  and  _173
REMARK   70  A    between atoms: _172  and  _175
REMARK   71  A    between atoms: _175  and  _176
REMARK   72  A    between atoms: _181  and  _182
REMARK   73  A    between atoms: _184  and  _186
REMARK   74  A    between atoms: _186  and  _187
REMARK   75  A    between atoms: _186  and  _189
REMARK   76  A    between atoms: _189  and  _190
REMARK   77  A    between atoms: _193  and  _195
REMARK   78  A    between atoms: _195  and  _196
REMARK   79  A    between atoms: _195  and  _198
REMARK   80  A    between atoms: _198  and  _199
REMARK   81  A    between atoms: _199  and  _200
REMARK   82  A    between atoms: _205  and  _207
REMARK   83  A    between atoms: _207  and  _208
REMARK   84  A    between atoms: _207  and  _210
REMARK   85  A    between atoms: _210  and  _211
REMARK   86  A    between atoms: _211  and  _212
REMARK   87  A    between atoms: _218  and  _219
REMARK   88  A    between atoms: _224  and  _226
REMARK   89  A    between atoms: _226  and  _227
REMARK   90  A    between atoms: _226  and  _229
REMARK   91  A    between atoms: _232  and  _234
REMARK   92  A    between atoms: _234  and  _235
REMARK   93  A    between atoms: _238  and  _240
REMARK   94  A    between atoms: _240  and  _241
REMARK   95  A    between atoms: _244  and  _246
REMARK   96  A    between atoms: _246  and  _247
REMARK   97  A    between atoms: _246  and  _249
REMARK   98  A    between atoms: _249  and  _250
REMARK   99  A    between atoms: _250  and  _251
REMARK  100  A    between atoms: _255  and  _256
REMARK                            x       y       z     vdW  Elec       q    Type
REMARK                         _______ _______ _______ _____ _____    ______ ____
ROOT
ATOM      1  CA  ASP A   2      24.441  11.482 -47.849  0.00  0.00    +0.160 C 
ENDROOT
BRANCH   1   3
ATOM      2  C   TYR A   1      25.456  13.398 -48.955  0.00  0.00    +0.239 C 
ATOM      3  N   ASP A   2      25.428  12.558 -47.899  0.00  0.00    -0.297 N 
ATOM      4  H   ASP A   2      26.108  12.677 -47.121  0.00  0.00    +0.150 HD
ATOM      5  O   TYR A   1      24.630  13.362 -49.871  0.00  0.00    -0.274 OA
BRANCH   2   6
ATOM      6  CA  TYR A   1      26.554  14.430 -49.015  0.00  0.00    +0.149 C 
BRANCH   6   7
ATOM      7  N   TYR A   1      27.435  14.371 -47.864  0.00  0.00    -0.238 NA
ATOM      8  H   TYR A   1      28.300  13.795 -47.901  0.00  0.00    +0.142 HD
ENDBRANCH   6   7
BRANCH   6   9
ATOM      9  CB  TYR A   1      27.339  14.288 -50.309  0.00  0.00    +0.053 C 
BRANCH   9  10
ATOM     10  CG  TYR A   1      28.332  15.403 -50.509  0.00  0.00    -0.020 A 
ATOM     11  CD2 TYR A   1      29.541  15.422 -49.791  0.00  0.00    -0.001 A 
ATOM     12  CE2 TYR A   1      30.460  16.453 -49.957  0.00  0.00    +0.036 A 
ATOM     13  CZ  TYR A   1      30.151  17.458 -50.858  0.00  0.00    +0.134 A 
ATOM     14  CE1 TYR A   1      28.959  17.458 -51.587  0.00  0.00    +0.036 A 
ATOM     15  CD1 TYR A   1      28.054  16.450 -51.394  0.00  0.00    -0.001 A 
BRANCH  13  16
ATOM     16  OH  TYR A   1      31.023  18.469 -51.051  0.00  0.00    -0.506 OA
ATOM     17  HH  TYR A   1      30.654  19.098 -51.721  0.00  0.00    +0.292 HD
ENDBRANCH  13  16
ENDBRANCH   9  10
ENDBRANCH   6   9
ENDBRANCH   2   6
ENDBRANCH   1   3
BRANCH   1  18
ATOM     18  C   ASP A   2      23.024  12.063 -47.816  0.00  0.00    +0.241 C 
ATOM     19  O   ASP A   2      22.816  13.124 -47.335  0.00  0.00    -0.273 OA
ATOM     20  N   GLN A   3      22.046  11.325 -48.302  0.00  0.00    -0.298 N 
ATOM     21  H   GLN A   3      22.251  10.375 -48.673  0.00  0.00    +0.150 HD
BRANCH  20  22
ATOM     22  CA  GLN A   3      20.712  11.819 -48.323  0.00  0.00    +0.137 C 
BRANCH  22  23
ATOM     23  C   GLN A   3      19.755  10.669 -47.905  0.00  0.00    +0.227 C 
ATOM     24  O   GLN A   3      19.955   9.461 -48.245  0.00  0.00    -0.286 OA
ENDBRANCH  22  23
BRANCH  22  25
ATOM     25  CB  GLN A   3      20.400  12.551 -49.681  0.00  0.00    +0.037 C 
BRANCH  25  26
ATOM     26  CG  GLN A   3      19.748  11.684 -50.712  0.00  0.00    +0.087 C 
BRANCH  26  27
ATOM     27  CD  GLN A   3      19.950  12.104 -52.224  0.00  0.00    +0.219 C 
ATOM     28  OE1 GLN A   3      20.292  13.246 -52.548  0.00  0.00    -0.275 OA
ATOM     29  NE2 GLN A   3      19.658  11.134 -53.137  0.00  0.00    -0.329 N 
ATOM     30 HE21 GLN A   3      19.374  10.186 -52.816  0.00  0.00    +0.145 HD
ATOM     31 HE22 GLN A   3      19.719  11.342 -54.154  0.00  0.00    +0.145 HD
ENDBRANCH  26  27
ENDBRANCH  25  26
ENDBRANCH  22  25
ENDBRANCH  20  22
ENDBRANCH   1  18
BRANCH   1  32
ATOM     32  CB  ASP A   2      24.622  10.531 -46.630  0.00  0.00    +0.143 C 
BRANCH  32  33
ATOM     33  CG  ASP A   2      25.956   9.785 -46.599  0.00  0.00    +0.367 C 
ATOM     34  OD2 ASP A   2      26.227   9.258 -45.500  0.00  0.00    -0.246 OA
ATOM     35  OD1 ASP A   2      26.725   9.713 -47.605  0.00  0.00    -0.246 OA
ENDBRANCH  32  33
ENDBRANCH   1  32
TORSDOF 14
REMARK  Name = ../refined-set-2016/3f70/3f70_pocket.pdb
REMARK  100 active torsions:
REMARK  status: ('A' for Active; 'I' for Inactive)
REMARK    1  A    between atoms: _1  and  _3
REMARK    2  A    between atoms: _3  and  _4
REMARK    3  A    between atoms: _7  and  _9
REMARK    4  A    between atoms: _9  and  _10
REMARK    5  A    between atoms: _9  and  _12
REMARK    6  A    between atoms: _15  and  _17
REMARK    7  A    between atoms: _17  and  _18
REMARK    8  A    between atoms: _17  and  _20
REMARK    9  A    between atoms: _20  and  _21
REMARK   10  A    between atoms: _24  and  _26
REMARK   11  A    between atoms: _26  and  _27
REMARK   12  A    between atoms: _26  and  _29
REMARK   13  A    between atoms: _29  and  _30
REMARK   14  A    between atoms: _33  and  _35
REMARK   15  A    between atoms: _35  and  _36
REMARK   16  A    between atoms: _35  and  _38
REMARK   17  A    between atoms: _38  and  _39
REMARK   18  A    between atoms: _39  and  _40
REMARK   19  A    between atoms: _42  and  _44
REMARK   20  A    between atoms: _44  and  _45
REMARK   21  A    between atoms: _44  and  _47
REMARK   22  A    between atoms: _47  and  _48
REMARK   23  A    between atoms: _48  and  _49
REMARK   24  A    between atoms: _52  and  _54
REMARK   25  A    between atoms: _54  and  _55
REMARK   26  A    between atoms: _54  and  _57
REMARK   27  A    between atoms: _57  and  _58
REMARK   28  A    between atoms: _58  and  _59
REMARK   29  A    between atoms: _59  and  _60
REMARK   30  A    between atoms: _69  and  _71
REMARK   31  A    between atoms: _71  and  _72
REMARK   32  A    between atoms: _71  and  _74
REMARK   33  A    between atoms: _74  and  _75
REMARK   34  A    between atoms: _78  and  _80
REMARK   35  A    between atoms: _80  and  _81
REMARK   36  A    between atoms: _80  and  _83
REMARK   37  A    between atoms: _83  and  _84
REMARK   38  A    between atoms: _87  and  _89
REMARK   39  A    between atoms: _89  and  _90
REMARK   40  A    between atoms: _89  and  _92
REMARK   41  A    between atoms: _94  and  _96
REMARK   42  A    between atoms: _96  and  _97
REMARK   43  A    between atoms: _96  and  _99
REMARK   44  A    between atoms: _102  and  _104
REMARK   45  A    between atoms: _104  and  _105
REMARK   46  A    between atoms: _108  and  _110
REMARK   47  A    between atoms: _110  and  _111
REMARK   48  A    between atoms: _110  and  _113
REMARK   49  A    between atoms: _113  and  _114
REMARK   50  A    between atoms: _119  and  _121
REMARK   51  A    between atoms: _121  and  _122
REMARK   52  A    between atoms: _121  and  _124
REMARK   53  A    between atoms: _124  and  _125
REMARK   54  A    between atoms: _131  and  _133
REMARK   55  A    between atoms: _133  and  _134
REMARK   56  A    between atoms: _133  and  _136
REMARK   57  A    between atoms: _136  and  _137
REMARK   58  A    between atoms: _140  and  _142
REMARK   59  A    between atoms: _142  and  _143
REMARK   60  A    between atoms: _145  and  _147
REMARK   61  A    between atoms: _147  and  _148
REMARK   62  A    between atoms: _147  and  _150
REMARK   63  A    between atoms: _150  and  _151
REMARK   64  A    between atoms: _161  and  _163
REMARK   65  A    between atoms: _163  and  _164
REMARK   66  A    between atoms: _163  and  _166
REMARK   67  A    between atoms: _166  and  _167
REMARK   68  A    between atoms: _170  and  _172
REMARK   69  A    between atoms: _172  and  _173
REMARK   70  A    between atoms: _172  and  _175
REMARK   71  A    between atoms: _175  and  _176
REMARK   72  A    between atoms: _181  and  _182
REMARK   73  A    between atoms: _184  and  _186
REMARK   74  A    between atoms: _186  and  _187
REMARK   75  A    between atoms: _186  and  _189
REMARK   76  A    between atoms: _189  and  _190
REMARK   77  A    between atoms: _193  and  _195
REMARK   78  A    between atoms: _195  and  _196
REMARK   79  A    between atoms: _195  and  _198
REMARK   80  A    between atoms: _198  and  _199
REMARK   81  A    between atoms: _199  and  _200
REMARK   82  A    between atoms: _205  and  _207
REMARK   83  A    between atoms: _207  and  _208
REMARK   84  A    between atoms: _207  and  _210
REMARK   85  A    between atoms: _210  and  _211
REMARK   86  A    between atoms: _211  and  _212
REMARK   87  A    between atoms: _218  and  _219
REMARK   88  A    between atoms: _224  and  _226
REMARK   89  A    between atoms: _226  and  _227
REMARK   90  A    between atoms: _226  and  _229
REMARK   91  A    between atoms: _232  and  _234
REMARK   92  A    between atoms: _234  and  _235
REMARK   93  A    between atoms: _238  and  _240
REMARK   94  A    between atoms: _240  and  _241
REMARK   95  A    between atoms: _244  and  _246
REMARK   96  A    between atoms: _246  and  _247
REMARK   97  A    between atoms: _246  and  _249
REMARK   98  A    between atoms: _249  and  _250
REMARK   99  A    between atoms: _250  and  _251
REMARK  100  A    between atoms: _255  and  _256
REMARK                            x       y       z     vdW  Elec       q    Type
REMARK                         _______ _______ _______ _____ _____    ______ ____
ROOT
ATOM      1  CA  GLN A   1      28.192  11.072 -62.705  0.00  0.00    +0.145 C 
ENDROOT
BRANCH   1   2
ATOM      2  C   GLN A   1      29.053   9.952 -62.117  0.00  0.00    +0.241 C 
ATOM      3  O   GLN A   1      28.551   9.024 -61.388  0.00  0.00    -0.273 OA
ATOM      4  N   PRO A   2      30.351  10.012 -62.398  0.00  0.00    -0.273 N 
ATOM      5  CA  PRO A   2      31.144   8.931 -61.835  0.00  0.00    +0.140 C 
ATOM      6  CB  PRO A   2      32.438   9.004 -62.639  0.00  0.00    +0.030 C 
ATOM      7  CG  PRO A   2      32.550  10.371 -63.054  0.00  0.00    +0.024 C 
ATOM      8  CD  PRO A   2      31.163  10.939 -63.204  0.00  0.00    +0.094 C 
BRANCH   5   9
ATOM      9  C   PRO A   2      31.399   9.144 -60.318  0.00  0.00    +0.227 C 
ATOM     10  O   PRO A   2      31.239  10.254 -59.783  0.00  0.00    -0.286 OA
ENDBRANCH   5   9
ENDBRANCH   1   2
BRANCH   1  11
ATOM     11  N   GLN A   1      27.025  10.495 -63.341  0.00  0.00    -0.238 NA
ATOM     12  H   GLN A   1      26.117  10.471 -62.835  0.00  0.00    +0.142 HD
ENDBRANCH   1  11
BRANCH   1  13
ATOM     13  CB  GLN A   1      27.918  12.203 -61.660  0.00  0.00    +0.036 C 
BRANCH  13  14
ATOM     14  CG  GLN A   1      27.081  13.411 -62.098  0.00  0.00    +0.087 C 
BRANCH  14  15
ATOM     15  CD  GLN A   1      27.689  14.125 -63.283  0.00  0.00    +0.219 C 
ATOM     16  OE1 GLN A   1      28.841  14.477 -63.211  0.00  0.00    -0.275 OA
ATOM     17  NE2 GLN A   1      26.927  14.333 -64.377  0.00  0.00    -0.329 N 
ATOM     18 HE21 GLN A   1      25.938  14.011 -64.391  0.00  0.00    +0.145 HD
ATOM     19 HE22 GLN A   1      27.328  14.816 -65.206  0.00  0.00    +0.145 HD
ENDBRANCH  14  15
ENDBRANCH  13  14
ENDBRANCH   1  13
TORSDOF 6
REMARK  Name = ../refined-set-2016/3f70/3f70_pocket.pdb
REMARK  100 active torsions:
REMARK  status: ('A' for Active; 'I' for Inactive)
REMARK    1  A    between atoms: _1  and  _3
REMARK    2  A    between atoms: _3  and  _4
REMARK    3  A    between atoms: _7  and  _9
REMARK    4  A    between atoms: _9  and  _10
REMARK    5  A    between atoms: _9  and  _12
REMARK    6  A    between atoms: _15  and  _17
REMARK    7  A    between atoms: _17  and  _18
REMARK    8  A    between atoms: _17  and  _20
REMARK    9  A    between atoms: _20  and  _21
REMARK   10  A    between atoms: _24  and  _26
REMARK   11  A    between atoms: _26  and  _27
REMARK   12  A    between atoms: _26  and  _29
REMARK   13  A    between atoms: _29  and  _30
REMARK   14  A    between atoms: _33  and  _35
REMARK   15  A    between atoms: _35  and  _36
REMARK   16  A    between atoms: _35  and  _38
REMARK   17  A    between atoms: _38  and  _39
REMARK   18  A    between atoms: _39  and  _40
REMARK   19  A    between atoms: _42  and  _44
REMARK   20  A    between atoms: _44  and  _45
REMARK   21  A    between atoms: _44  and  _47
REMARK   22  A    between atoms: _47  and  _48
REMARK   23  A    between atoms: _48  and  _49
REMARK   24  A    between atoms: _52  and  _54
REMARK   25  A    between atoms: _54  and  _55
REMARK   26  A    between atoms: _54  and  _57
REMARK   27  A    between atoms: _57  and  _58
REMARK   28  A    between atoms: _58  and  _59
REMARK   29  A    between atoms: _59  and  _60
REMARK   30  A    between atoms: _69  and  _71
REMARK   31  A    between atoms: _71  and  _72
REMARK   32  A    between atoms: _71  and  _74
REMARK   33  A    between atoms: _74  and  _75
REMARK   34  A    between atoms: _78  and  _80
REMARK   35  A    between atoms: _80  and  _81
REMARK   36  A    between atoms: _80  and  _83
REMARK   37  A    between atoms: _83  and  _84
REMARK   38  A    between atoms: _87  and  _89
REMARK   39  A    between atoms: _89  and  _90
REMARK   40  A    between atoms: _89  and  _92
REMARK   41  A    between atoms: _94  and  _96
REMARK   42  A    between atoms: _96  and  _97
REMARK   43  A    between atoms: _96  and  _99
REMARK   44  A    between atoms: _102  and  _104
REMARK   45  A    between atoms: _104  and  _105
REMARK   46  A    between atoms: _108  and  _110
REMARK   47  A    between atoms: _110  and  _111
REMARK   48  A    between atoms: _110  and  _113
REMARK   49  A    between atoms: _113  and  _114
REMARK   50  A    between atoms: _119  and  _121
REMARK   51  A    between atoms: _121  and  _122
REMARK   52  A    between atoms: _121  and  _124
REMARK   53  A    between atoms: _124  and  _125
REMARK   54  A    between atoms: _131  and  _133
REMARK   55  A    between atoms: _133  and  _134
REMARK   56  A    between atoms: _133  and  _136
REMARK   57  A    between atoms: _136  and  _137
REMARK   58  A    between atoms: _140  and  _142
REMARK   59  A    between atoms: _142  and  _143
REMARK   60  A    between atoms: _145  and  _147
REMARK   61  A    between atoms: _147  and  _148
REMARK   62  A    between atoms: _147  and  _150
REMARK   63  A    between atoms: _150  and  _151
REMARK   64  A    between atoms: _161  and  _163
REMARK   65  A    between atoms: _163  and  _164
REMARK   66  A    between atoms: _163  and  _166
REMARK   67  A    between atoms: _166  and  _167
REMARK   68  A    between atoms: _170  and  _172
REMARK   69  A    between atoms: _172  and  _173
REMARK   70  A    between atoms: _172  and  _175
REMARK   71  A    between atoms: _175  and  _176
REMARK   72  A    between atoms: _181  and  _182
REMARK   73  A    between atoms: _184  and  _186
REMARK   74  A    between atoms: _186  and  _187
REMARK   75  A    between atoms: _186  and  _189
REMARK   76  A    between atoms: _189  and  _190
REMARK   77  A    between atoms: _193  and  _195
REMARK   78  A    between atoms: _195  and  _196
REMARK   79  A    between atoms: _195  and  _198
REMARK   80  A    between atoms: _198  and  _199
REMARK   81  A    between atoms: _199  and  _200
REMARK   82  A    between atoms: _205  and  _207
REMARK   83  A    between atoms: _207  and  _208
REMARK   84  A    between atoms: _207  and  _210
REMARK   85  A    between atoms: _210  and  _211
REMARK   86  A    between atoms: _211  and  _212
REMARK   87  A    between atoms: _218  and  _219
REMARK   88  A    between atoms: _224  and  _226
REMARK   89  A    between atoms: _226  and  _227
REMARK   90  A    between atoms: _226  and  _229
REMARK   91  A    between atoms: _232  and  _234
REMARK   92  A    between atoms: _234  and  _235
REMARK   93  A    between atoms: _238  and  _240
REMARK   94  A    between atoms: _240  and  _241
REMARK   95  A    between atoms: _244  and  _246
REMARK   96  A    between atoms: _246  and  _247
REMARK   97  A    between atoms: _246  and  _249
REMARK   98  A    between atoms: _249  and  _250
REMARK   99  A    between atoms: _250  and  _251
REMARK  100  A    between atoms: _255  and  _256
REMARK                            x       y       z     vdW  Elec       q    Type
REMARK                         _______ _______ _______ _____ _____    ______ ____
ROOT
ATOM      1  C   ALA A   3      33.991  16.722 -59.358  0.00  0.00    +0.241 C 
ATOM      2  O   ALA A   3      32.913  16.386 -58.871  0.00  0.00    -0.273 OA
ATOM      3  N   GLU A   4      34.068  17.681 -60.278  0.00  0.00    -0.297 N 
ATOM      4  H   GLU A   4      34.990  18.003 -60.637  0.00  0.00    +0.150 HD
ENDROOT
BRANCH   1   5
ATOM      5  CA  ALA A   3      35.284  16.055 -58.889  0.00  0.00    +0.149 C 
ATOM      6  CB  ALA A   3      35.914  15.183 -60.015  0.00  0.00    +0.031 C 
BRANCH   5   9
ATOM      7  C   ALA A   2      35.581  14.829 -56.722  0.00  0.00    +0.241 C 
ATOM      8  O   ALA A   2      36.798  15.068 -56.641  0.00  0.00    -0.273 OA
ATOM      9  N   ALA A   3      34.830  15.235 -57.751  0.00  0.00    -0.297 N 
ATOM     10  H   ALA A   3      33.831  14.945 -57.748  0.00  0.00    +0.150 HD
BRANCH   7  11
ATOM     11  CA  ALA A   2      34.835  13.964 -55.643  0.00  0.00    +0.149 C 
ATOM     12  CB  ALA A   2      35.368  14.233 -54.205  0.00  0.00    +0.031 C 
BRANCH  11  14
ATOM     13  C   VAL A   1      34.362  12.072 -57.114  0.00  0.00    +0.238 C 
ATOM     14  N   ALA A   2      34.904  12.527 -55.984  0.00  0.00    -0.297 N 
ATOM     15  H   ALA A   2      35.379  11.866 -55.337  0.00  0.00    +0.150 HD
ATOM     16  O   VAL A   1      33.644  12.766 -57.830  0.00  0.00    -0.274 OA
BRANCH  13  17
ATOM     17  CA  VAL A   1      34.689  10.667 -57.559  0.00  0.00    +0.145 C 
BRANCH  17  18
ATOM     18  CB  VAL A   1      35.588  10.917 -58.792  0.00  0.00    +0.025 C 
ATOM     19  CG2 VAL A   1      37.061  11.121 -58.343  0.00  0.00    +0.002 C 
ATOM     20  CG1 VAL A   1      35.444   9.848 -59.818  0.00  0.00    +0.002 C 
ENDBRANCH  17  18
BRANCH  17  21
ATOM     21  N   VAL A   1      33.442   9.951 -57.905  0.00  0.00    -0.238 NA
ATOM     22  H   VAL A   1      32.645  10.498 -58.289  0.00  0.00    +0.142 HD
ENDBRANCH  17  21
ENDBRANCH  13  17
ENDBRANCH  11  14
ENDBRANCH   7  11
ENDBRANCH   5   9
ENDBRANCH   1   5
BRANCH   3  23
ATOM     23  CA  GLU A   4      32.813  18.275 -60.776  0.00  0.00    +0.149 C 
BRANCH  23  24
ATOM     24  C   GLU A   4      32.497  17.721 -62.174  0.00  0.00    +0.244 C 
ATOM     25  N   PRO A   5      31.237  17.901 -62.677  0.00  0.00    -0.273 N 
ATOM     26  CD  PRO A   5      30.075  18.500 -61.980  0.00  0.00    +0.094 C 
ATOM     27  CG  PRO A   5      28.917  18.082 -62.804  0.00  0.00    +0.024 C 
ATOM     28  CB  PRO A   5      29.407  17.912 -64.187  0.00  0.00    +0.030 C 
ATOM     29  CA  PRO A   5      30.861  17.440 -64.033  0.00  0.00    +0.140 C 
ATOM     30  O   GLU A   4      33.371  17.082 -62.745  0.00  0.00    -0.273 OA
BRANCH  29  31
ATOM     31  C   PRO A   5      31.729  17.982 -65.185  0.00  0.00    +0.227 C 
ATOM     32  O   PRO A   5      32.082  17.202 -66.092  0.00  0.00    -0.286 OA
ENDBRANCH  29  31
ENDBRANCH  23  24
BRANCH  23  33
ATOM     33  CB  GLU A   4      32.836  19.807 -60.720  0.00  0.00    +0.041 C 
BRANCH  33  34
ATOM     34  CG  GLU A   4      31.547  20.365 -60.064  0.00  0.00    +0.116 C 
BRANCH  34  35
ATOM     35  CD  GLU A   4      31.412  21.863 -60.213  0.00  0.00    +0.365 C 
ATOM     36  OE2 GLU A   4      30.546  22.469 -59.520  0.00  0.00    -0.246 OA
ATOM     37  OE1 GLU A   4      32.187  22.421 -61.020  0.00  0.00    -0.246 OA
ENDBRANCH  34  35
ENDBRANCH  33  34
ENDBRANCH  23  33
ENDBRANCH   3  23
TORSDOF 13
REMARK  Name = ../refined-set-2016/3f70/3f70_pocket.pdb
REMARK  100 active torsions:
REMARK  status: ('A' for Active; 'I' for Inactive)
REMARK    1  A    between atoms: _1  and  _3
REMARK    2  A    between atoms: _3  and  _4
REMARK    3  A    between atoms: _7  and  _9
REMARK    4  A    between atoms: _9  and  _10
REMARK    5  A    between atoms: _9  and  _12
REMARK    6  A    between atoms: _15  and  _17
REMARK    7  A    between atoms: _17  and  _18
REMARK    8  A    between atoms: _17  and  _20
REMARK    9  A    between atoms: _20  and  _21
REMARK   10  A    between atoms: _24  and  _26
REMARK   11  A    between atoms: _26  and  _27
REMARK   12  A    between atoms: _26  and  _29
REMARK   13  A    between atoms: _29  and  _30
REMARK   14  A    between atoms: _33  and  _35
REMARK   15  A    between atoms: _35  and  _36
REMARK   16  A    between atoms: _35  and  _38
REMARK   17  A    between atoms: _38  and  _39
REMARK   18  A    between atoms: _39  and  _40
REMARK   19  A    between atoms: _42  and  _44
REMARK   20  A    between atoms: _44  and  _45
REMARK   21  A    between atoms: _44  and  _47
REMARK   22  A    between atoms: _47  and  _48
REMARK   23  A    between atoms: _48  and  _49
REMARK   24  A    between atoms: _52  and  _54
REMARK   25  A    between atoms: _54  and  _55
REMARK   26  A    between atoms: _54  and  _57
REMARK   27  A    between atoms: _57  and  _58
REMARK   28  A    between atoms: _58  and  _59
REMARK   29  A    between atoms: _59  and  _60
REMARK   30  A    between atoms: _69  and  _71
REMARK   31  A    between atoms: _71  and  _72
REMARK   32  A    between atoms: _71  and  _74
REMARK   33  A    between atoms: _74  and  _75
REMARK   34  A    between atoms: _78  and  _80
REMARK   35  A    between atoms: _80  and  _81
REMARK   36  A    between atoms: _80  and  _83
REMARK   37  A    between atoms: _83  and  _84
REMARK   38  A    between atoms: _87  and  _89
REMARK   39  A    between atoms: _89  and  _90
REMARK   40  A    between atoms: _89  and  _92
REMARK   41  A    between atoms: _94  and  _96
REMARK   42  A    between atoms: _96  and  _97
REMARK   43  A    between atoms: _96  and  _99
REMARK   44  A    between atoms: _102  and  _104
REMARK   45  A    between atoms: _104  and  _105
REMARK   46  A    between atoms: _108  and  _110
REMARK   47  A    between atoms: _110  and  _111
REMARK   48  A    between atoms: _110  and  _113
REMARK   49  A    between atoms: _113  and  _114
REMARK   50  A    between atoms: _119  and  _121
REMARK   51  A    between atoms: _121  and  _122
REMARK   52  A    between atoms: _121  and  _124
REMARK   53  A    between atoms: _124  and  _125
REMARK   54  A    between atoms: _131  and  _133
REMARK   55  A    between atoms: _133  and  _134
REMARK   56  A    between atoms: _133  and  _136
REMARK   57  A    between atoms: _136  and  _137
REMARK   58  A    between atoms: _140  and  _142
REMARK   59  A    between atoms: _142  and  _143
REMARK   60  A    between atoms: _145  and  _147
REMARK   61  A    between atoms: _147  and  _148
REMARK   62  A    between atoms: _147  and  _150
REMARK   63  A    between atoms: _150  and  _151
REMARK   64  A    between atoms: _161  and  _163
REMARK   65  A    between atoms: _163  and  _164
REMARK   66  A    between atoms: _163  and  _166
REMARK   67  A    between atoms: _166  and  _167
REMARK   68  A    between atoms: _170  and  _172
REMARK   69  A    between atoms: _172  and  _173
REMARK   70  A    between atoms: _172  and  _175
REMARK   71  A    between atoms: _175  and  _176
REMARK   72  A    between atoms: _181  and  _182
REMARK   73  A    between atoms: _184  and  _186
REMARK   74  A    between atoms: _186  and  _187
REMARK   75  A    between atoms: _186  and  _189
REMARK   76  A    between atoms: _189  and  _190
REMARK   77  A    between atoms: _193  and  _195
REMARK   78  A    between atoms: _195  and  _196
REMARK   79  A    between atoms: _195  and  _198
REMARK   80  A    between atoms: _198  and  _199
REMARK   81  A    between atoms: _199  and  _200
REMARK   82  A    between atoms: _205  and  _207
REMARK   83  A    between atoms: _207  and  _208
REMARK   84  A    between atoms: _207  and  _210
REMARK   85  A    between atoms: _210  and  _211
REMARK   86  A    between atoms: _211  and  _212
REMARK   87  A    between atoms: _218  and  _219
REMARK   88  A    between atoms: _224  and  _226
REMARK   89  A    between atoms: _226  and  _227
REMARK   90  A    between atoms: _226  and  _229
REMARK   91  A    between atoms: _232  and  _234
REMARK   92  A    between atoms: _234  and  _235
REMARK   93  A    between atoms: _238  and  _240
REMARK   94  A    between atoms: _240  and  _241
REMARK   95  A    between atoms: _244  and  _246
REMARK   96  A    between atoms: _246  and  _247
REMARK   97  A    between atoms: _246  and  _249
REMARK   98  A    between atoms: _249  and  _250
REMARK   99  A    between atoms: _250  and  _251
REMARK  100  A    between atoms: _255  and  _256
REMARK                            x       y       z     vdW  Elec       q    Type
REMARK                         _______ _______ _______ _____ _____    ______ ____
ROOT
ATOM      1  O   HOH     1      28.945   9.112 -56.558  0.00  0.00    +0.000 OA
ENDROOT
TORSDOF 0
REMARK  Name = ../refined-set-2016/3f70/3f70_pocket.pdb
REMARK  100 active torsions:
REMARK  status: ('A' for Active; 'I' for Inactive)
REMARK    1  A    between atoms: _1  and  _3
REMARK    2  A    between atoms: _3  and  _4
REMARK    3  A    between atoms: _7  and  _9
REMARK    4  A    between atoms: _9  and  _10
REMARK    5  A    between atoms: _9  and  _12
REMARK    6  A    between atoms: _15  and  _17
REMARK    7  A    between atoms: _17  and  _18
REMARK    8  A    between atoms: _17  and  _20
REMARK    9  A    between atoms: _20  and  _21
REMARK   10  A    between atoms: _24  and  _26
REMARK   11  A    between atoms: _26  and  _27
REMARK   12  A    between atoms: _26  and  _29
REMARK   13  A    between atoms: _29  and  _30
REMARK   14  A    between atoms: _33  and  _35
REMARK   15  A    between atoms: _35  and  _36
REMARK   16  A    between atoms: _35  and  _38
REMARK   17  A    between atoms: _38  and  _39
REMARK   18  A    between atoms: _39  and  _40
REMARK   19  A    between atoms: _42  and  _44
REMARK   20  A    between atoms: _44  and  _45
REMARK   21  A    between atoms: _44  and  _47
REMARK   22  A    between atoms: _47  and  _48
REMARK   23  A    between atoms: _48  and  _49
REMARK   24  A    between atoms: _52  and  _54
REMARK   25  A    between atoms: _54  and  _55
REMARK   26  A    between atoms: _54  and  _57
REMARK   27  A    between atoms: _57  and  _58
REMARK   28  A    between atoms: _58  and  _59
REMARK   29  A    between atoms: _59  and  _60
REMARK   30  A    between atoms: _69  and  _71
REMARK   31  A    between atoms: _71  and  _72
REMARK   32  A    between atoms: _71  and  _74
REMARK   33  A    between atoms: _74  and  _75
REMARK   34  A    between atoms: _78  and  _80
REMARK   35  A    between atoms: _80  and  _81
REMARK   36  A    between atoms: _80  and  _83
REMARK   37  A    between atoms: _83  and  _84
REMARK   38  A    between atoms: _87  and  _89
REMARK   39  A    between atoms: _89  and  _90
REMARK   40  A    between atoms: _89  and  _92
REMARK   41  A    between atoms: _94  and  _96
REMARK   42  A    between atoms: _96  and  _97
REMARK   43  A    between atoms: _96  and  _99
REMARK   44  A    between atoms: _102  and  _104
REMARK   45  A    between atoms: _104  and  _105
REMARK   46  A    between atoms: _108  and  _110
REMARK   47  A    between atoms: _110  and  _111
REMARK   48  A    between atoms: _110  and  _113
REMARK   49  A    between atoms: _113  and  _114
REMARK   50  A    between atoms: _119  and  _121
REMARK   51  A    between atoms: _121  and  _122
REMARK   52  A    between atoms: _121  and  _124
REMARK   53  A    between atoms: _124  and  _125
REMARK   54  A    between atoms: _131  and  _133
REMARK   55  A    between atoms: _133  and  _134
REMARK   56  A    between atoms: _133  and  _136
REMARK   57  A    between atoms: _136  and  _137
REMARK   58  A    between atoms: _140  and  _142
REMARK   59  A    between atoms: _142  and  _143
REMARK   60  A    between atoms: _145  and  _147
REMARK   61  A    between atoms: _147  and  _148
REMARK   62  A    between atoms: _147  and  _150
REMARK   63  A    between atoms: _150  and  _151
REMARK   64  A    between atoms: _161  and  _163
REMARK   65  A    between atoms: _163  and  _164
REMARK   66  A    between atoms: _163  and  _166
REMARK   67  A    between atoms: _166  and  _167
REMARK   68  A    between atoms: _170  and  _172
REMARK   69  A    between atoms: _172  and  _173
REMARK   70  A    between atoms: _172  and  _175
REMARK   71  A    between atoms: _175  and  _176
REMARK   72  A    between atoms: _181  and  _182
REMARK   73  A    between atoms: _184  and  _186
REMARK   74  A    between atoms: _186  and  _187
REMARK   75  A    between atoms: _186  and  _189
REMARK   76  A    between atoms: _189  and  _190
REMARK   77  A    between atoms: _193  and  _195
REMARK   78  A    between atoms: _195  and  _196
REMARK   79  A    between atoms: _195  and  _198
REMARK   80  A    between atoms: _198  and  _199
REMARK   81  A    between atoms: _199  and  _200
REMARK   82  A    between atoms: _205  and  _207
REMARK   83  A    between atoms: _207  and  _208
REMARK   84  A    between atoms: _207  and  _210
REMARK   85  A    between atoms: _210  and  _211
REMARK   86  A    between atoms: _211  and  _212
REMARK   87  A    between atoms: _218  and  _219
REMARK   88  A    between atoms: _224  and  _226
REMARK   89  A    between atoms: _226  and  _227
REMARK   90  A    between atoms: _226  and  _229
REMARK   91  A    between atoms: _232  and  _234
REMARK   92  A    between atoms: _234  and  _235
REMARK   93  A    between atoms: _238  and  _240
REMARK   94  A    between atoms: _240  and  _241
REMARK   95  A    between atoms: _244  and  _246
REMARK   96  A    between atoms: _246  and  _247
REMARK   97  A    between atoms: _246  and  _249
REMARK   98  A    between atoms: _249  and  _250
REMARK   99  A    between atoms: _250  and  _251
REMARK  100  A    between atoms: _255  and  _256
REMARK                            x       y       z     vdW  Elec       q    Type
REMARK                         _______ _______ _______ _____ _____    ______ ____
ROOT
ATOM      1  O   HOH     1      29.501  11.154 -58.146  0.00  0.00    +0.000 OA
ENDROOT
TORSDOF 0
REMARK  Name = ../refined-set-2016/3f70/3f70_pocket.pdb
REMARK  100 active torsions:
REMARK  status: ('A' for Active; 'I' for Inactive)
REMARK    1  A    between atoms: _1  and  _3
REMARK    2  A    between atoms: _3  and  _4
REMARK    3  A    between atoms: _7  and  _9
REMARK    4  A    between atoms: _9  and  _10
REMARK    5  A    between atoms: _9  and  _12
REMARK    6  A    between atoms: _15  and  _17
REMARK    7  A    between atoms: _17  and  _18
REMARK    8  A    between atoms: _17  and  _20
REMARK    9  A    between atoms: _20  and  _21
REMARK   10  A    between atoms: _24  and  _26
REMARK   11  A    between atoms: _26  and  _27
REMARK   12  A    between atoms: _26  and  _29
REMARK   13  A    between atoms: _29  and  _30
REMARK   14  A    between atoms: _33  and  _35
REMARK   15  A    between atoms: _35  and  _36
REMARK   16  A    between atoms: _35  and  _38
REMARK   17  A    between atoms: _38  and  _39
REMARK   18  A    between atoms: _39  and  _40
REMARK   19  A    between atoms: _42  and  _44
REMARK   20  A    between atoms: _44  and  _45
REMARK   21  A    between atoms: _44  and  _47
REMARK   22  A    between atoms: _47  and  _48
REMARK   23  A    between atoms: _48  and  _49
REMARK   24  A    between atoms: _52  and  _54
REMARK   25  A    between atoms: _54  and  _55
REMARK   26  A    between atoms: _54  and  _57
REMARK   27  A    between atoms: _57  and  _58
REMARK   28  A    between atoms: _58  and  _59
REMARK   29  A    between atoms: _59  and  _60
REMARK   30  A    between atoms: _69  and  _71
REMARK   31  A    between atoms: _71  and  _72
REMARK   32  A    between atoms: _71  and  _74
REMARK   33  A    between atoms: _74  and  _75
REMARK   34  A    between atoms: _78  and  _80
REMARK   35  A    between atoms: _80  and  _81
REMARK   36  A    between atoms: _80  and  _83
REMARK   37  A    between atoms: _83  and  _84
REMARK   38  A    between atoms: _87  and  _89
REMARK   39  A    between atoms: _89  and  _90
REMARK   40  A    between atoms: _89  and  _92
REMARK   41  A    between atoms: _94  and  _96
REMARK   42  A    between atoms: _96  and  _97
REMARK   43  A    between atoms: _96  and  _99
REMARK   44  A    between atoms: _102  and  _104
REMARK   45  A    between atoms: _104  and  _105
REMARK   46  A    between atoms: _108  and  _110
REMARK   47  A    between atoms: _110  and  _111
REMARK   48  A    between atoms: _110  and  _113
REMARK   49  A    between atoms: _113  and  _114
REMARK   50  A    between atoms: _119  and  _121
REMARK   51  A    between atoms: _121  and  _122
REMARK   52  A    between atoms: _121  and  _124
REMARK   53  A    between atoms: _124  and  _125
REMARK   54  A    between atoms: _131  and  _133
REMARK   55  A    between atoms: _133  and  _134
REMARK   56  A    between atoms: _133  and  _136
REMARK   57  A    between atoms: _136  and  _137
REMARK   58  A    between atoms: _140  and  _142
REMARK   59  A    between atoms: _142  and  _143
REMARK   60  A    between atoms: _145  and  _147
REMARK   61  A    between atoms: _147  and  _148
REMARK   62  A    between atoms: _147  and  _150
REMARK   63  A    between atoms: _150  and  _151
REMARK   64  A    between atoms: _161  and  _163
REMARK   65  A    between atoms: _163  and  _164
REMARK   66  A    between atoms: _163  and  _166
REMARK   67  A    between atoms: _166  and  _167
REMARK   68  A    between atoms: _170  and  _172
REMARK   69  A    between atoms: _172  and  _173
REMARK   70  A    between atoms: _172  and  _175
REMARK   71  A    between atoms: _175  and  _176
REMARK   72  A    between atoms: _181  and  _182
REMARK   73  A    between atoms: _184  and  _186
REMARK   74  A    between atoms: _186  and  _187
REMARK   75  A    between atoms: _186  and  _189
REMARK   76  A    between atoms: _189  and  _190
REMARK   77  A    between atoms: _193  and  _195
REMARK   78  A    between atoms: _195  and  _196
REMARK   79  A    between atoms: _195  and  _198
REMARK   80  A    between atoms: _198  and  _199
REMARK   81  A    between atoms: _199  and  _200
REMARK   82  A    between atoms: _205  and  _207
REMARK   83  A    between atoms: _207  and  _208
REMARK   84  A    between atoms: _207  and  _210
REMARK   85  A    between atoms: _210  and  _211
REMARK   86  A    between atoms: _211  and  _212
REMARK   87  A    between atoms: _218  and  _219
REMARK   88  A    between atoms: _224  and  _226
REMARK   89  A    between atoms: _226  and  _227
REMARK   90  A    between atoms: _226  and  _229
REMARK   91  A    between atoms: _232  and  _234
REMARK   92  A    between atoms: _234  and  _235
REMARK   93  A    between atoms: _238  and  _240
REMARK   94  A    between atoms: _240  and  _241
REMARK   95  A    between atoms: _244  and  _246
REMARK   96  A    between atoms: _246  and  _247
REMARK   97  A    between atoms: _246  and  _249
REMARK   98  A    between atoms: _249  and  _250
REMARK   99  A    between atoms: _250  and  _251
REMARK  100  A    between atoms: _255  and  _256
REMARK                            x       y       z     vdW  Elec       q    Type
REMARK                         _______ _______ _______ _____ _____    ______ ____
ROOT
ATOM      1  O   HOH     1      28.341  14.069 -58.395  0.00  0.00    +0.000 OA
ENDROOT
TORSDOF 0
REMARK  Name = ../refined-set-2016/3f70/3f70_pocket.pdb
REMARK  100 active torsions:
REMARK  status: ('A' for Active; 'I' for Inactive)
REMARK    1  A    between atoms: _1  and  _3
REMARK    2  A    between atoms: _3  and  _4
REMARK    3  A    between atoms: _7  and  _9
REMARK    4  A    between atoms: _9  and  _10
REMARK    5  A    between atoms: _9  and  _12
REMARK    6  A    between atoms: _15  and  _17
REMARK    7  A    between atoms: _17  and  _18
REMARK    8  A    between atoms: _17  and  _20
REMARK    9  A    between atoms: _20  and  _21
REMARK   10  A    between atoms: _24  and  _26
REMARK   11  A    between atoms: _26  and  _27
REMARK   12  A    between atoms: _26  and  _29
REMARK   13  A    between atoms: _29  and  _30
REMARK   14  A    between atoms: _33  and  _35
REMARK   15  A    between atoms: _35  and  _36
REMARK   16  A    between atoms: _35  and  _38
REMARK   17  A    between atoms: _38  and  _39
REMARK   18  A    between atoms: _39  and  _40
REMARK   19  A    between atoms: _42  and  _44
REMARK   20  A    between atoms: _44  and  _45
REMARK   21  A    between atoms: _44  and  _47
REMARK   22  A    between atoms: _47  and  _48
REMARK   23  A    between atoms: _48  and  _49
REMARK   24  A    between atoms: _52  and  _54
REMARK   25  A    between atoms: _54  and  _55
REMARK   26  A    between atoms: _54  and  _57
REMARK   27  A    between atoms: _57  and  _58
REMARK   28  A    between atoms: _58  and  _59
REMARK   29  A    between atoms: _59  and  _60
REMARK   30  A    between atoms: _69  and  _71
REMARK   31  A    between atoms: _71  and  _72
REMARK   32  A    between atoms: _71  and  _74
REMARK   33  A    between atoms: _74  and  _75
REMARK   34  A    between atoms: _78  and  _80
REMARK   35  A    between atoms: _80  and  _81
REMARK   36  A    between atoms: _80  and  _83
REMARK   37  A    between atoms: _83  and  _84
REMARK   38  A    between atoms: _87  and  _89
REMARK   39  A    between atoms: _89  and  _90
REMARK   40  A    between atoms: _89  and  _92
REMARK   41  A    between atoms: _94  and  _96
REMARK   42  A    between atoms: _96  and  _97
REMARK   43  A    between atoms: _96  and  _99
REMARK   44  A    between atoms: _102  and  _104
REMARK   45  A    between atoms: _104  and  _105
REMARK   46  A    between atoms: _108  and  _110
REMARK   47  A    between atoms: _110  and  _111
REMARK   48  A    between atoms: _110  and  _113
REMARK   49  A    between atoms: _113  and  _114
REMARK   50  A    between atoms: _119  and  _121
REMARK   51  A    between atoms: _121  and  _122
REMARK   52  A    between atoms: _121  and  _124
REMARK   53  A    between atoms: _124  and  _125
REMARK   54  A    between atoms: _131  and  _133
REMARK   55  A    between atoms: _133  and  _134
REMARK   56  A    between atoms: _133  and  _136
REMARK   57  A    between atoms: _136  and  _137
REMARK   58  A    between atoms: _140  and  _142
REMARK   59  A    between atoms: _142  and  _143
REMARK   60  A    between atoms: _145  and  _147
REMARK   61  A    between atoms: _147  and  _148
REMARK   62  A    between atoms: _147  and  _150
REMARK   63  A    between atoms: _150  and  _151
REMARK   64  A    between atoms: _161  and  _163
REMARK   65  A    between atoms: _163  and  _164
REMARK   66  A    between atoms: _163  and  _166
REMARK   67  A    between atoms: _166  and  _167
REMARK   68  A    between atoms: _170  and  _172
REMARK   69  A    between atoms: _172  and  _173
REMARK   70  A    between atoms: _172  and  _175
REMARK   71  A    between atoms: _175  and  _176
REMARK   72  A    between atoms: _181  and  _182
REMARK   73  A    between atoms: _184  and  _186
REMARK   74  A    between atoms: _186  and  _187
REMARK   75  A    between atoms: _186  and  _189
REMARK   76  A    between atoms: _189  and  _190
REMARK   77  A    between atoms: _193  and  _195
REMARK   78  A    between atoms: _195  and  _196
REMARK   79  A    between atoms: _195  and  _198
REMARK   80  A    between atoms: _198  and  _199
REMARK   81  A    between atoms: _199  and  _200
REMARK   82  A    between atoms: _205  and  _207
REMARK   83  A    between atoms: _207  and  _208
REMARK   84  A    between atoms: _207  and  _210
REMARK   85  A    between atoms: _210  and  _211
REMARK   86  A    between atoms: _211  and  _212
REMARK   87  A    between atoms: _218  and  _219
REMARK   88  A    between atoms: _224  and  _226
REMARK   89  A    between atoms: _226  and  _227
REMARK   90  A    between atoms: _226  and  _229
REMARK   91  A    between atoms: _232  and  _234
REMARK   92  A    between atoms: _234  and  _235
REMARK   93  A    between atoms: _238  and  _240
REMARK   94  A    between atoms: _240  and  _241
REMARK   95  A    between atoms: _244  and  _246
REMARK   96  A    between atoms: _246  and  _247
REMARK   97  A    between atoms: _246  and  _249
REMARK   98  A    between atoms: _249  and  _250
REMARK   99  A    between atoms: _250  and  _251
REMARK  100  A    between atoms: _255  and  _256
REMARK                            x       y       z     vdW  Elec       q    Type
REMARK                         _______ _______ _______ _____ _____    ______ ____
ROOT
ATOM      1  O   HOH     1      27.877  10.658 -49.905  0.00  0.00    +0.000 OA
ENDROOT
TORSDOF 0
REMARK  Name = ../refined-set-2016/3f70/3f70_pocket.pdb
REMARK  100 active torsions:
REMARK  status: ('A' for Active; 'I' for Inactive)
REMARK    1  A    between atoms: _1  and  _3
REMARK    2  A    between atoms: _3  and  _4
REMARK    3  A    between atoms: _7  and  _9
REMARK    4  A    between atoms: _9  and  _10
REMARK    5  A    between atoms: _9  and  _12
REMARK    6  A    between atoms: _15  and  _17
REMARK    7  A    between atoms: _17  and  _18
REMARK    8  A    between atoms: _17  and  _20
REMARK    9  A    between atoms: _20  and  _21
REMARK   10  A    between atoms: _24  and  _26
REMARK   11  A    between atoms: _26  and  _27
REMARK   12  A    between atoms: _26  and  _29
REMARK   13  A    between atoms: _29  and  _30
REMARK   14  A    between atoms: _33  and  _35
REMARK   15  A    between atoms: _35  and  _36
REMARK   16  A    between atoms: _35  and  _38
REMARK   17  A    between atoms: _38  and  _39
REMARK   18  A    between atoms: _39  and  _40
REMARK   19  A    between atoms: _42  and  _44
REMARK   20  A    between atoms: _44  and  _45
REMARK   21  A    between atoms: _44  and  _47
REMARK   22  A    between atoms: _47  and  _48
REMARK   23  A    between atoms: _48  and  _49
REMARK   24  A    between atoms: _52  and  _54
REMARK   25  A    between atoms: _54  and  _55
REMARK   26  A    between atoms: _54  and  _57
REMARK   27  A    between atoms: _57  and  _58
REMARK   28  A    between atoms: _58  and  _59
REMARK   29  A    between atoms: _59  and  _60
REMARK   30  A    between atoms: _69  and  _71
REMARK   31  A    between atoms: _71  and  _72
REMARK   32  A    between atoms: _71  and  _74
REMARK   33  A    between atoms: _74  and  _75
REMARK   34  A    between atoms: _78  and  _80
REMARK   35  A    between atoms: _80  and  _81
REMARK   36  A    between atoms: _80  and  _83
REMARK   37  A    between atoms: _83  and  _84
REMARK   38  A    between atoms: _87  and  _89
REMARK   39  A    between atoms: _89  and  _90
REMARK   40  A    between atoms: _89  and  _92
REMARK   41  A    between atoms: _94  and  _96
REMARK   42  A    between atoms: _96  and  _97
REMARK   43  A    between atoms: _96  and  _99
REMARK   44  A    between atoms: _102  and  _104
REMARK   45  A    between atoms: _104  and  _105
REMARK   46  A    between atoms: _108  and  _110
REMARK   47  A    between atoms: _110  and  _111
REMARK   48  A    between atoms: _110  and  _113
REMARK   49  A    between atoms: _113  and  _114
REMARK   50  A    between atoms: _119  and  _121
REMARK   51  A    between atoms: _121  and  _122
REMARK   52  A    between atoms: _121  and  _124
REMARK   53  A    between atoms: _124  and  _125
REMARK   54  A    between atoms: _131  and  _133
REMARK   55  A    between atoms: _133  and  _134
REMARK   56  A    between atoms: _133  and  _136
REMARK   57  A    between atoms: _136  and  _137
REMARK   58  A    between atoms: _140  and  _142
REMARK   59  A    between atoms: _142  and  _143
REMARK   60  A    between atoms: _145  and  _147
REMARK   61  A    between atoms: _147  and  _148
REMARK   62  A    between atoms: _147  and  _150
REMARK   63  A    between atoms: _150  and  _151
REMARK   64  A    between atoms: _161  and  _163
REMARK   65  A    between atoms: _163  and  _164
REMARK   66  A    between atoms: _163  and  _166
REMARK   67  A    between atoms: _166  and  _167
REMARK   68  A    between atoms: _170  and  _172
REMARK   69  A    between atoms: _172  and  _173
REMARK   70  A    between atoms: _172  and  _175
REMARK   71  A    between atoms: _175  and  _176
REMARK   72  A    between atoms: _181  and  _182
REMARK   73  A    between atoms: _184  and  _186
REMARK   74  A    between atoms: _186  and  _187
REMARK   75  A    between atoms: _186  and  _189
REMARK   76  A    between atoms: _189  and  _190
REMARK   77  A    between atoms: _193  and  _195
REMARK   78  A    between atoms: _195  and  _196
REMARK   79  A    between atoms: _195  and  _198
REMARK   80  A    between atoms: _198  and  _199
REMARK   81  A    between atoms: _199  and  _200
REMARK   82  A    between atoms: _205  and  _207
REMARK   83  A    between atoms: _207  and  _208
REMARK   84  A    between atoms: _207  and  _210
REMARK   85  A    between atoms: _210  and  _211
REMARK   86  A    between atoms: _211  and  _212
REMARK   87  A    between atoms: _218  and  _219
REMARK   88  A    between atoms: _224  and  _226
REMARK   89  A    between atoms: _226  and  _227
REMARK   90  A    between atoms: _226  and  _229
REMARK   91  A    between atoms: _232  and  _234
REMARK   92  A    between atoms: _234  and  _235
REMARK   93  A    between atoms: _238  and  _240
REMARK   94  A    between atoms: _240  and  _241
REMARK   95  A    between atoms: _244  and  _246
REMARK   96  A    between atoms: _246  and  _247
REMARK   97  A    between atoms: _246  and  _249
REMARK   98  A    between atoms: _249  and  _250
REMARK   99  A    between atoms: _250  and  _251
REMARK  100  A    between atoms: _255  and  _256
REMARK                            x       y       z     vdW  Elec       q    Type
REMARK                         _______ _______ _______ _____ _____    ______ ____
ROOT
ATOM      1  O   HOH     1      34.055  14.416 -50.371  0.00  0.00    +0.000 OA
ENDROOT
TORSDOF 0
REMARK  Name = ../refined-set-2016/3f70/3f70_pocket.pdb
REMARK  100 active torsions:
REMARK  status: ('A' for Active; 'I' for Inactive)
REMARK    1  A    between atoms: _1  and  _3
REMARK    2  A    between atoms: _3  and  _4
REMARK    3  A    between atoms: _7  and  _9
REMARK    4  A    between atoms: _9  and  _10
REMARK    5  A    between atoms: _9  and  _12
REMARK    6  A    between atoms: _15  and  _17
REMARK    7  A    between atoms: _17  and  _18
REMARK    8  A    between atoms: _17  and  _20
REMARK    9  A    between atoms: _20  and  _21
REMARK   10  A    between atoms: _24  and  _26
REMARK   11  A    between atoms: _26  and  _27
REMARK   12  A    between atoms: _26  and  _29
REMARK   13  A    between atoms: _29  and  _30
REMARK   14  A    between atoms: _33  and  _35
REMARK   15  A    between atoms: _35  and  _36
REMARK   16  A    between atoms: _35  and  _38
REMARK   17  A    between atoms: _38  and  _39
REMARK   18  A    between atoms: _39  and  _40
REMARK   19  A    between atoms: _42  and  _44
REMARK   20  A    between atoms: _44  and  _45
REMARK   21  A    between atoms: _44  and  _47
REMARK   22  A    between atoms: _47  and  _48
REMARK   23  A    between atoms: _48  and  _49
REMARK   24  A    between atoms: _52  and  _54
REMARK   25  A    between atoms: _54  and  _55
REMARK   26  A    between atoms: _54  and  _57
REMARK   27  A    between atoms: _57  and  _58
REMARK   28  A    between atoms: _58  and  _59
REMARK   29  A    between atoms: _59  and  _60
REMARK   30  A    between atoms: _69  and  _71
REMARK   31  A    between atoms: _71  and  _72
REMARK   32  A    between atoms: _71  and  _74
REMARK   33  A    between atoms: _74  and  _75
REMARK   34  A    between atoms: _78  and  _80
REMARK   35  A    between atoms: _80  and  _81
REMARK   36  A    between atoms: _80  and  _83
REMARK   37  A    between atoms: _83  and  _84
REMARK   38  A    between atoms: _87  and  _89
REMARK   39  A    between atoms: _89  and  _90
REMARK   40  A    between atoms: _89  and  _92
REMARK   41  A    between atoms: _94  and  _96
REMARK   42  A    between atoms: _96  and  _97
REMARK   43  A    between atoms: _96  and  _99
REMARK   44  A    between atoms: _102  and  _104
REMARK   45  A    between atoms: _104  and  _105
REMARK   46  A    between atoms: _108  and  _110
REMARK   47  A    between atoms: _110  and  _111
REMARK   48  A    between atoms: _110  and  _113
REMARK   49  A    between atoms: _113  and  _114
REMARK   50  A    between atoms: _119  and  _121
REMARK   51  A    between atoms: _121  and  _122
REMARK   52  A    between atoms: _121  and  _124
REMARK   53  A    between atoms: _124  and  _125
REMARK   54  A    between atoms: _131  and  _133
REMARK   55  A    between atoms: _133  and  _134
REMARK   56  A    between atoms: _133  and  _136
REMARK   57  A    between atoms: _136  and  _137
REMARK   58  A    between atoms: _140  and  _142
REMARK   59  A    between atoms: _142  and  _143
REMARK   60  A    between atoms: _145  and  _147
REMARK   61  A    between atoms: _147  and  _148
REMARK   62  A    between atoms: _147  and  _150
REMARK   63  A    between atoms: _150  and  _151
REMARK   64  A    between atoms: _161  and  _163
REMARK   65  A    between atoms: _163  and  _164
REMARK   66  A    between atoms: _163  and  _166
REMARK   67  A    between atoms: _166  and  _167
REMARK   68  A    between atoms: _170  and  _172
REMARK   69  A    between atoms: _172  and  _173
REMARK   70  A    between atoms: _172  and  _175
REMARK   71  A    between atoms: _175  and  _176
REMARK   72  A    between atoms: _181  and  _182
REMARK   73  A    between atoms: _184  and  _186
REMARK   74  A    between atoms: _186  and  _187
REMARK   75  A    between atoms: _186  and  _189
REMARK   76  A    between atoms: _189  and  _190
REMARK   77  A    between atoms: _193  and  _195
REMARK   78  A    between atoms: _195  and  _196
REMARK   79  A    between atoms: _195  and  _198
REMARK   80  A    between atoms: _198  and  _199
REMARK   81  A    between atoms: _199  and  _200
REMARK   82  A    between atoms: _205  and  _207
REMARK   83  A    between atoms: _207  and  _208
REMARK   84  A    between atoms: _207  and  _210
REMARK   85  A    between atoms: _210  and  _211
REMARK   86  A    between atoms: _211  and  _212
REMARK   87  A    between atoms: _218  and  _219
REMARK   88  A    between atoms: _224  and  _226
REMARK   89  A    between atoms: _226  and  _227
REMARK   90  A    between atoms: _226  and  _229
REMARK   91  A    between atoms: _232  and  _234
REMARK   92  A    between atoms: _234  and  _235
REMARK   93  A    between atoms: _238  and  _240
REMARK   94  A    between atoms: _240  and  _241
REMARK   95  A    between atoms: _244  and  _246
REMARK   96  A    between atoms: _246  and  _247
REMARK   97  A    between atoms: _246  and  _249
REMARK   98  A    between atoms: _249  and  _250
REMARK   99  A    between atoms: _250  and  _251
REMARK  100  A    between atoms: _255  and  _256
REMARK                            x       y       z     vdW  Elec       q    Type
REMARK                         _______ _______ _______ _____ _____    ______ ____
ROOT
ATOM      1  O   HOH     1      32.930  20.692 -57.595  0.00  0.00    +0.000 OA
ENDROOT
TORSDOF 0
