REMARK  Name = ../refined-set-2016/1g45/1g45_pocket.pdb
REMARK  155 active torsions:
REMARK  status: ('A' for Active; 'I' for Inactive)
REMARK    1  A    between atoms: _1  and  _3
REMARK    2  A    between atoms: _3  and  _4
REMARK    3  A    between atoms: _3  and  _6
REMARK    4  A    between atoms: _6  and  _7
REMARK    5  A    between atoms: _12  and  _14
REMARK    6  A    between atoms: _14  and  _15
REMARK    7  A    between atoms: _14  and  _17
REMARK    8  A    between atoms: _17  and  _18
REMARK    9  A    between atoms: _28  and  _30
REMARK   10  A    between atoms: _30  and  _31
REMARK   11  A    between atoms: _30  and  _33
REMARK   12  A    between atoms: _33  and  _34
REMARK   13  A    between atoms: _39  and  _40
REMARK   14  A    between atoms: _42  and  _44
REMARK   15  A    between atoms: _44  and  _45
REMARK   16  A    between atoms: _44  and  _47
REMARK   17  A    between atoms: _47  and  _48
REMARK   18  A    between atoms: _51  and  _52
REMARK   19  A    between atoms: _57  and  _59
REMARK   20  A    between atoms: _59  and  _60
REMARK   21  A    between atoms: _59  and  _62
REMARK   22  A    between atoms: _62  and  _63
REMARK   23  A    between atoms: _68  and  _70
REMARK   24  A    between atoms: _70  and  _71
REMARK   25  A    between atoms: _74  and  _76
REMARK   26  A    between atoms: _76  and  _77
REMARK   27  A    between atoms: _76  and  _79
REMARK   28  A    between atoms: _79  and  _80
REMARK   29  A    between atoms: _85  and  _87
REMARK   30  A    between atoms: _87  and  _88
REMARK   31  A    between atoms: _87  and  _90
REMARK   32  A    between atoms: _90  and  _91
REMARK   33  A    between atoms: _94  and  _96
REMARK   34  A    between atoms: _96  and  _97
REMARK   35  A    between atoms: _96  and  _99
REMARK   36  A    between atoms: _99  and  _100
REMARK   37  A    between atoms: _100  and  _101
REMARK   38  A    between atoms: _106  and  _108
REMARK   39  A    between atoms: _108  and  _109
REMARK   40  A    between atoms: _108  and  _111
REMARK   41  A    between atoms: _111  and  _112
REMARK   42  A    between atoms: _118  and  _120
REMARK   43  A    between atoms: _131  and  _134
REMARK   44  A    between atoms: _134  and  _135
REMARK   45  A    between atoms: _143  and  _144
REMARK   46  A    between atoms: _152  and  _154
REMARK   47  A    between atoms: _154  and  _155
REMARK   48  A    between atoms: _154  and  _157
REMARK   49  A    between atoms: _157  and  _158
REMARK   50  A    between atoms: _158  and  _159
REMARK   51  A    between atoms: _162  and  _164
REMARK   52  A    between atoms: _164  and  _165
REMARK   53  A    between atoms: _164  and  _167
REMARK   54  A    between atoms: _167  and  _168
REMARK   55  A    between atoms: _173  and  _175
REMARK   56  A    between atoms: _175  and  _176
REMARK   57  A    between atoms: _175  and  _178
REMARK   58  A    between atoms: _178  and  _179
REMARK   59  A    between atoms: _179  and  _180
REMARK   60  A    between atoms: _183  and  _185
REMARK   61  A    between atoms: _185  and  _186
REMARK   62  A    between atoms: _185  and  _188
REMARK   63  A    between atoms: _188  and  _189
REMARK   64  A    between atoms: _192  and  _194
REMARK   65  A    between atoms: _194  and  _195
REMARK   66  A    between atoms: _194  and  _197
REMARK   67  A    between atoms: _197  and  _198
REMARK   68  A    between atoms: _199  and  ZN_433
REMARK   69  A    between atoms: _203  and  _205
REMARK   70  A    between atoms: _205  and  _206
REMARK   71  A    between atoms: _205  and  _208
REMARK   72  A    between atoms: _208  and  _209
REMARK   73  A    between atoms: _212  and  _214
REMARK   74  A    between atoms: _214  and  _215
REMARK   75  A    between atoms: _214  and  _217
REMARK   76  A    between atoms: _220  and  _222
REMARK   77  A    between atoms: _222  and  _223
REMARK   78  A    between atoms: _222  and  _225
REMARK   79  A    between atoms: _225  and  _226
REMARK   80  A    between atoms: _231  and  _233
REMARK   81  A    between atoms: _233  and  _234
REMARK   82  A    between atoms: _233  and  _236
REMARK   83  A    between atoms: _239  and  _241
REMARK   84  A    between atoms: _241  and  _242
REMARK   85  A    between atoms: _244  and  _246
REMARK   86  A    between atoms: _246  and  _247
REMARK   87  A    between atoms: _250  and  _252
REMARK   88  A    between atoms: _252  and  _253
REMARK   89  A    between atoms: _252  and  _255
REMARK   90  A    between atoms: _258  and  _260
REMARK   91  A    between atoms: _260  and  _261
REMARK   92  A    between atoms: _260  and  _263
REMARK   93  A    between atoms: _263  and  _264
REMARK   94  A    between atoms: _264  and  _265
REMARK   95  A    between atoms: _270  and  _272
REMARK   96  A    between atoms: _272  and  _273
REMARK   97  A    between atoms: _272  and  _275
REMARK   98  A    between atoms: _275  and  _276
REMARK   99  A    between atoms: _279  and  _281
REMARK  100  A    between atoms: _281  and  _282
REMARK  101  A    between atoms: _285  and  _287
REMARK  102  A    between atoms: _287  and  _288
REMARK  103  A    between atoms: _287  and  _290
REMARK  104  A    between atoms: _293  and  _295
REMARK  105  A    between atoms: _295  and  _296
REMARK  106  A    between atoms: _295  and  _298
REMARK  107  A    between atoms: _298  and  _299
REMARK  108  A    between atoms: _302  and  _304
REMARK  109  A    between atoms: _304  and  _305
REMARK  110  A    between atoms: _307  and  _309
REMARK  111  A    between atoms: _309  and  _310
REMARK  112  A    between atoms: _309  and  _312
REMARK  113  A    between atoms: _312  and  _313
REMARK  114  A    between atoms: _315  and  _317
REMARK  115  A    between atoms: _317  and  _318
REMARK  116  A    between atoms: _317  and  _320
REMARK  117  A    between atoms: _320  and  _321
REMARK  118  A    between atoms: _324  and  _326
REMARK  119  A    between atoms: _326  and  _327
REMARK  120  A    between atoms: _326  and  _329
REMARK  121  A    between atoms: _329  and  _330
REMARK  122  A    between atoms: _333  and  _335
REMARK  123  A    between atoms: _335  and  _336
REMARK  124  A    between atoms: _335  and  _338
REMARK  125  A    between atoms: _338  and  _339
REMARK  126  A    between atoms: _343  and  _344
REMARK  127  A    between atoms: _350  and  _351
REMARK  128  A    between atoms: _356  and  _358
REMARK  129  A    between atoms: _358  and  _359
REMARK  130  A    between atoms: _358  and  _361
REMARK  131  A    between atoms: _361  and  _362
REMARK  132  A    between atoms: _365  and  _367
REMARK  133  A    between atoms: _367  and  _368
REMARK  134  A    between atoms: _367  and  _370
REMARK  135  A    between atoms: _370  and  _371
REMARK  136  A    between atoms: _374  and  _376
REMARK  137  A    between atoms: _376  and  _377
REMARK  138  A    between atoms: _376  and  _379
REMARK  139  A    between atoms: _381  and  _383
REMARK  140  A    between atoms: _383  and  _384
REMARK  141  A    between atoms: _383  and  _386
REMARK  142  A    between atoms: _389  and  _391
REMARK  143  A    between atoms: _391  and  _392
REMARK  144  A    between atoms: _391  and  _394
REMARK  145  A    between atoms: _394  and  _395
REMARK  146  A    between atoms: _405  and  _407
REMARK  147  A    between atoms: _407  and  _408
REMARK  148  A    between atoms: _407  and  _410
REMARK  149  A    between atoms: _410  and  _411
REMARK  150  A    between atoms: _416  and  _418
REMARK  151  A    between atoms: _418  and  _419
REMARK  152  A    between atoms: _418  and  _421
REMARK  153  A    between atoms: _421  and  _422
REMARK  154  A    between atoms: _422  and  _423
REMARK  155  A    between atoms: _423  and  _424
REMARK                            x       y       z     vdW  Elec       q    Type
REMARK                         _______ _______ _______ _____ _____    ______ ____
ROOT
ATOM      1  CA  TRP A   2       7.356  -1.316  11.188  0.00  0.00    +0.141 C 
ENDROOT
BRANCH   1   3
ATOM      2  C   HIS A   1       8.841  -0.465   9.452  0.00  0.00    +0.239 C 
ATOM      3  N   TRP A   2       7.974  -0.226  10.430  0.00  0.00    -0.298 N 
ATOM      4  H   TRP A   2       7.729   0.758  10.663  0.00  0.00    +0.150 HD
ATOM      5  O   HIS A   1       9.177  -1.608   9.129  0.00  0.00    -0.274 OA
BRANCH   2   6
ATOM      6  CA  HIS A   1       9.459   0.750   8.746  0.00  0.00    +0.151 C 
BRANCH   6   7
ATOM      7  N   HIS A   1      10.799   0.323   8.338  0.00  0.00    -0.238 NA
ATOM      8  H   HIS A   1      11.030   0.241   7.327  0.00  0.00    +0.142 HD
ENDBRANCH   6   7
BRANCH   6   9
ATOM      9  CB  HIS A   1       8.628   1.150   7.524  0.00  0.00    +0.074 C 
BRANCH   9  10
ATOM     10  CG  HIS A   1       7.301   1.758   7.862  0.00  0.00    +0.082 A 
ATOM     11  ND1 HIS A   1       7.154   3.090   8.184  0.00  0.00    -0.227 NA
ATOM     12  CE1 HIS A   1       5.879   3.350   8.411  0.00  0.00    +0.199 A 
ATOM     13  NE2 HIS A   1       5.192   2.233   8.248  0.00  0.00    -0.221 NA
ATOM     14  CD2 HIS A   1       6.057   1.222   7.906  0.00  0.00    +0.115 A 
ENDBRANCH   9  10
ENDBRANCH   6   9
ENDBRANCH   2   6
ENDBRANCH   1   3
BRANCH   1  15
ATOM     15  C   TRP A   2       6.399  -2.199  10.385  0.00  0.00    +0.227 C 
ATOM     16  O   TRP A   2       5.835  -1.768   9.361  0.00  0.00    -0.286 OA
ENDBRANCH   1  15
BRANCH   1  17
ATOM     17  CB  TRP A   2       6.642  -0.762  12.423  0.00  0.00    +0.056 C 
BRANCH  17  18
ATOM     18  CG  TRP A   2       5.432   0.070  12.107  0.00  0.00    -0.002 A 
ATOM     19  CD2 TRP A   2       4.070  -0.388  12.041  0.00  0.00    +0.013 A 
ATOM     20  CE3 TRP A   2       3.450  -1.629  12.238  0.00  0.00    +0.001 A 
ATOM     21  CZ3 TRP A   2       2.064  -1.714  12.096  0.00  0.00    +0.000 A 
ATOM     22  CH2 TRP A   2       1.298  -0.585  11.762  0.00  0.00    +0.001 A 
ATOM     23  CZ2 TRP A   2       1.879   0.641  11.562  0.00  0.00    +0.017 A 
ATOM     24  CE2 TRP A   2       3.268   0.731  11.704  0.00  0.00    +0.056 A 
ATOM     25  NE1 TRP A   2       4.105   1.812  11.578  0.00  0.00    -0.352 N 
ATOM     26  HE1 TRP A   2       3.808   2.779  11.338  0.00  0.00    +0.166 HD
ATOM     27  CD1 TRP A   2       5.400   1.413  11.820  0.00  0.00    +0.068 A 
ENDBRANCH  17  18
ENDBRANCH   1  17
TORSDOF 8
REMARK  Name = ../refined-set-2016/1g45/1g45_pocket.pdb
REMARK  155 active torsions:
REMARK  status: ('A' for Active; 'I' for Inactive)
REMARK    1  A    between atoms: _1  and  _3
REMARK    2  A    between atoms: _3  and  _4
REMARK    3  A    between atoms: _3  and  _6
REMARK    4  A    between atoms: _6  and  _7
REMARK    5  A    between atoms: _12  and  _14
REMARK    6  A    between atoms: _14  and  _15
REMARK    7  A    between atoms: _14  and  _17
REMARK    8  A    between atoms: _17  and  _18
REMARK    9  A    between atoms: _28  and  _30
REMARK   10  A    between atoms: _30  and  _31
REMARK   11  A    between atoms: _30  and  _33
REMARK   12  A    between atoms: _33  and  _34
REMARK   13  A    between atoms: _39  and  _40
REMARK   14  A    between atoms: _42  and  _44
REMARK   15  A    between atoms: _44  and  _45
REMARK   16  A    between atoms: _44  and  _47
REMARK   17  A    between atoms: _47  and  _48
REMARK   18  A    between atoms: _51  and  _52
REMARK   19  A    between atoms: _57  and  _59
REMARK   20  A    between atoms: _59  and  _60
REMARK   21  A    between atoms: _59  and  _62
REMARK   22  A    between atoms: _62  and  _63
REMARK   23  A    between atoms: _68  and  _70
REMARK   24  A    between atoms: _70  and  _71
REMARK   25  A    between atoms: _74  and  _76
REMARK   26  A    between atoms: _76  and  _77
REMARK   27  A    between atoms: _76  and  _79
REMARK   28  A    between atoms: _79  and  _80
REMARK   29  A    between atoms: _85  and  _87
REMARK   30  A    between atoms: _87  and  _88
REMARK   31  A    between atoms: _87  and  _90
REMARK   32  A    between atoms: _90  and  _91
REMARK   33  A    between atoms: _94  and  _96
REMARK   34  A    between atoms: _96  and  _97
REMARK   35  A    between atoms: _96  and  _99
REMARK   36  A    between atoms: _99  and  _100
REMARK   37  A    between atoms: _100  and  _101
REMARK   38  A    between atoms: _106  and  _108
REMARK   39  A    between atoms: _108  and  _109
REMARK   40  A    between atoms: _108  and  _111
REMARK   41  A    between atoms: _111  and  _112
REMARK   42  A    between atoms: _118  and  _120
REMARK   43  A    between atoms: _131  and  _134
REMARK   44  A    between atoms: _134  and  _135
REMARK   45  A    between atoms: _143  and  _144
REMARK   46  A    between atoms: _152  and  _154
REMARK   47  A    between atoms: _154  and  _155
REMARK   48  A    between atoms: _154  and  _157
REMARK   49  A    between atoms: _157  and  _158
REMARK   50  A    between atoms: _158  and  _159
REMARK   51  A    between atoms: _162  and  _164
REMARK   52  A    between atoms: _164  and  _165
REMARK   53  A    between atoms: _164  and  _167
REMARK   54  A    between atoms: _167  and  _168
REMARK   55  A    between atoms: _173  and  _175
REMARK   56  A    between atoms: _175  and  _176
REMARK   57  A    between atoms: _175  and  _178
REMARK   58  A    between atoms: _178  and  _179
REMARK   59  A    between atoms: _179  and  _180
REMARK   60  A    between atoms: _183  and  _185
REMARK   61  A    between atoms: _185  and  _186
REMARK   62  A    between atoms: _185  and  _188
REMARK   63  A    between atoms: _188  and  _189
REMARK   64  A    between atoms: _192  and  _194
REMARK   65  A    between atoms: _194  and  _195
REMARK   66  A    between atoms: _194  and  _197
REMARK   67  A    between atoms: _197  and  _198
REMARK   68  A    between atoms: _199  and  ZN_433
REMARK   69  A    between atoms: _203  and  _205
REMARK   70  A    between atoms: _205  and  _206
REMARK   71  A    between atoms: _205  and  _208
REMARK   72  A    between atoms: _208  and  _209
REMARK   73  A    between atoms: _212  and  _214
REMARK   74  A    between atoms: _214  and  _215
REMARK   75  A    between atoms: _214  and  _217
REMARK   76  A    between atoms: _220  and  _222
REMARK   77  A    between atoms: _222  and  _223
REMARK   78  A    between atoms: _222  and  _225
REMARK   79  A    between atoms: _225  and  _226
REMARK   80  A    between atoms: _231  and  _233
REMARK   81  A    between atoms: _233  and  _234
REMARK   82  A    between atoms: _233  and  _236
REMARK   83  A    between atoms: _239  and  _241
REMARK   84  A    between atoms: _241  and  _242
REMARK   85  A    between atoms: _244  and  _246
REMARK   86  A    between atoms: _246  and  _247
REMARK   87  A    between atoms: _250  and  _252
REMARK   88  A    between atoms: _252  and  _253
REMARK   89  A    between atoms: _252  and  _255
REMARK   90  A    between atoms: _258  and  _260
REMARK   91  A    between atoms: _260  and  _261
REMARK   92  A    between atoms: _260  and  _263
REMARK   93  A    between atoms: _263  and  _264
REMARK   94  A    between atoms: _264  and  _265
REMARK   95  A    between atoms: _270  and  _272
REMARK   96  A    between atoms: _272  and  _273
REMARK   97  A    between atoms: _272  and  _275
REMARK   98  A    between atoms: _275  and  _276
REMARK   99  A    between atoms: _279  and  _281
REMARK  100  A    between atoms: _281  and  _282
REMARK  101  A    between atoms: _285  and  _287
REMARK  102  A    between atoms: _287  and  _288
REMARK  103  A    between atoms: _287  and  _290
REMARK  104  A    between atoms: _293  and  _295
REMARK  105  A    between atoms: _295  and  _296
REMARK  106  A    between atoms: _295  and  _298
REMARK  107  A    between atoms: _298  and  _299
REMARK  108  A    between atoms: _302  and  _304
REMARK  109  A    between atoms: _304  and  _305
REMARK  110  A    between atoms: _307  and  _309
REMARK  111  A    between atoms: _309  and  _310
REMARK  112  A    between atoms: _309  and  _312
REMARK  113  A    between atoms: _312  and  _313
REMARK  114  A    between atoms: _315  and  _317
REMARK  115  A    between atoms: _317  and  _318
REMARK  116  A    between atoms: _317  and  _320
REMARK  117  A    between atoms: _320  and  _321
REMARK  118  A    between atoms: _324  and  _326
REMARK  119  A    between atoms: _326  and  _327
REMARK  120  A    between atoms: _326  and  _329
REMARK  121  A    between atoms: _329  and  _330
REMARK  122  A    between atoms: _333  and  _335
REMARK  123  A    between atoms: _335  and  _336
REMARK  124  A    between atoms: _335  and  _338
REMARK  125  A    between atoms: _338  and  _339
REMARK  126  A    between atoms: _343  and  _344
REMARK  127  A    between atoms: _350  and  _351
REMARK  128  A    between atoms: _356  and  _358
REMARK  129  A    between atoms: _358  and  _359
REMARK  130  A    between atoms: _358  and  _361
REMARK  131  A    between atoms: _361  and  _362
REMARK  132  A    between atoms: _365  and  _367
REMARK  133  A    between atoms: _367  and  _368
REMARK  134  A    between atoms: _367  and  _370
REMARK  135  A    between atoms: _370  and  _371
REMARK  136  A    between atoms: _374  and  _376
REMARK  137  A    between atoms: _376  and  _377
REMARK  138  A    between atoms: _376  and  _379
REMARK  139  A    between atoms: _381  and  _383
REMARK  140  A    between atoms: _383  and  _384
REMARK  141  A    between atoms: _383  and  _386
REMARK  142  A    between atoms: _389  and  _391
REMARK  143  A    between atoms: _391  and  _392
REMARK  144  A    between atoms: _391  and  _394
REMARK  145  A    between atoms: _394  and  _395
REMARK  146  A    between atoms: _405  and  _407
REMARK  147  A    between atoms: _407  and  _408
REMARK  148  A    between atoms: _407  and  _410
REMARK  149  A    between atoms: _410  and  _411
REMARK  150  A    between atoms: _416  and  _418
REMARK  151  A    between atoms: _418  and  _419
REMARK  152  A    between atoms: _418  and  _421
REMARK  153  A    between atoms: _421  and  _422
REMARK  154  A    between atoms: _422  and  _423
REMARK  155  A    between atoms: _423  and  _424
REMARK                            x       y       z     vdW  Elec       q    Type
REMARK                         _______ _______ _______ _____ _____    ______ ____
ROOT
ATOM      1  CG  TYR A   1       1.869  -7.008  11.973  0.00  0.00    -0.020 A 
ATOM      2  CD2 TYR A   1       1.521  -6.933  13.323  0.00  0.00    -0.001 A 
ATOM      3  CE2 TYR A   1       0.693  -5.922  13.790  0.00  0.00    +0.036 A 
ATOM      4  CZ  TYR A   1       0.196  -4.970  12.890  0.00  0.00    +0.134 A 
ATOM      5  CE1 TYR A   1       0.535  -5.027  11.547  0.00  0.00    +0.036 A 
ATOM      6  CD1 TYR A   1       1.370  -6.045  11.097  0.00  0.00    -0.001 A 
ENDROOT
BRANCH   4   7
ATOM      7  OH  TYR A   1      -0.663  -3.986  13.325  0.00  0.00    -0.506 OA
ATOM      8  HH  TYR A   1      -0.804  -4.080  14.300  0.00  0.00    +0.292 HD
ENDBRANCH   4   7
BRANCH   1   9
ATOM      9  CB  TYR A   1       2.768  -8.099  11.477  0.00  0.00    +0.051 C 
BRANCH   9  10
ATOM     10  CA  TYR A   1       4.248  -7.753  11.618  0.00  0.00    +0.137 C 
BRANCH  10  11
ATOM     11  N   TYR A   1       4.586  -6.623  10.757  0.00  0.00    -0.239 NA
ATOM     12  H   TYR A   1       4.534  -6.743   9.725  0.00  0.00    +0.142 HD
ENDBRANCH  10  11
BRANCH  10  13
ATOM     13  C   TYR A   1       5.090  -8.978  11.289  0.00  0.00    +0.224 C 
ATOM     14  O   TYR A   1       4.773 -10.087  11.719  0.00  0.00    -0.287 OA
ENDBRANCH  10  13
ENDBRANCH   9  10
ENDBRANCH   1   9
TORSDOF 5
REMARK  Name = ../refined-set-2016/1g45/1g45_pocket.pdb
REMARK  155 active torsions:
REMARK  status: ('A' for Active; 'I' for Inactive)
REMARK    1  A    between atoms: _1  and  _3
REMARK    2  A    between atoms: _3  and  _4
REMARK    3  A    between atoms: _3  and  _6
REMARK    4  A    between atoms: _6  and  _7
REMARK    5  A    between atoms: _12  and  _14
REMARK    6  A    between atoms: _14  and  _15
REMARK    7  A    between atoms: _14  and  _17
REMARK    8  A    between atoms: _17  and  _18
REMARK    9  A    between atoms: _28  and  _30
REMARK   10  A    between atoms: _30  and  _31
REMARK   11  A    between atoms: _30  and  _33
REMARK   12  A    between atoms: _33  and  _34
REMARK   13  A    between atoms: _39  and  _40
REMARK   14  A    between atoms: _42  and  _44
REMARK   15  A    between atoms: _44  and  _45
REMARK   16  A    between atoms: _44  and  _47
REMARK   17  A    between atoms: _47  and  _48
REMARK   18  A    between atoms: _51  and  _52
REMARK   19  A    between atoms: _57  and  _59
REMARK   20  A    between atoms: _59  and  _60
REMARK   21  A    between atoms: _59  and  _62
REMARK   22  A    between atoms: _62  and  _63
REMARK   23  A    between atoms: _68  and  _70
REMARK   24  A    between atoms: _70  and  _71
REMARK   25  A    between atoms: _74  and  _76
REMARK   26  A    between atoms: _76  and  _77
REMARK   27  A    between atoms: _76  and  _79
REMARK   28  A    between atoms: _79  and  _80
REMARK   29  A    between atoms: _85  and  _87
REMARK   30  A    between atoms: _87  and  _88
REMARK   31  A    between atoms: _87  and  _90
REMARK   32  A    between atoms: _90  and  _91
REMARK   33  A    between atoms: _94  and  _96
REMARK   34  A    between atoms: _96  and  _97
REMARK   35  A    between atoms: _96  and  _99
REMARK   36  A    between atoms: _99  and  _100
REMARK   37  A    between atoms: _100  and  _101
REMARK   38  A    between atoms: _106  and  _108
REMARK   39  A    between atoms: _108  and  _109
REMARK   40  A    between atoms: _108  and  _111
REMARK   41  A    between atoms: _111  and  _112
REMARK   42  A    between atoms: _118  and  _120
REMARK   43  A    between atoms: _131  and  _134
REMARK   44  A    between atoms: _134  and  _135
REMARK   45  A    between atoms: _143  and  _144
REMARK   46  A    between atoms: _152  and  _154
REMARK   47  A    between atoms: _154  and  _155
REMARK   48  A    between atoms: _154  and  _157
REMARK   49  A    between atoms: _157  and  _158
REMARK   50  A    between atoms: _158  and  _159
REMARK   51  A    between atoms: _162  and  _164
REMARK   52  A    between atoms: _164  and  _165
REMARK   53  A    between atoms: _164  and  _167
REMARK   54  A    between atoms: _167  and  _168
REMARK   55  A    between atoms: _173  and  _175
REMARK   56  A    between atoms: _175  and  _176
REMARK   57  A    between atoms: _175  and  _178
REMARK   58  A    between atoms: _178  and  _179
REMARK   59  A    between atoms: _179  and  _180
REMARK   60  A    between atoms: _183  and  _185
REMARK   61  A    between atoms: _185  and  _186
REMARK   62  A    between atoms: _185  and  _188
REMARK   63  A    between atoms: _188  and  _189
REMARK   64  A    between atoms: _192  and  _194
REMARK   65  A    between atoms: _194  and  _195
REMARK   66  A    between atoms: _194  and  _197
REMARK   67  A    between atoms: _197  and  _198
REMARK   68  A    between atoms: _199  and  ZN_433
REMARK   69  A    between atoms: _203  and  _205
REMARK   70  A    between atoms: _205  and  _206
REMARK   71  A    between atoms: _205  and  _208
REMARK   72  A    between atoms: _208  and  _209
REMARK   73  A    between atoms: _212  and  _214
REMARK   74  A    between atoms: _214  and  _215
REMARK   75  A    between atoms: _214  and  _217
REMARK   76  A    between atoms: _220  and  _222
REMARK   77  A    between atoms: _222  and  _223
REMARK   78  A    between atoms: _222  and  _225
REMARK   79  A    between atoms: _225  and  _226
REMARK   80  A    between atoms: _231  and  _233
REMARK   81  A    between atoms: _233  and  _234
REMARK   82  A    between atoms: _233  and  _236
REMARK   83  A    between atoms: _239  and  _241
REMARK   84  A    between atoms: _241  and  _242
REMARK   85  A    between atoms: _244  and  _246
REMARK   86  A    between atoms: _246  and  _247
REMARK   87  A    between atoms: _250  and  _252
REMARK   88  A    between atoms: _252  and  _253
REMARK   89  A    between atoms: _252  and  _255
REMARK   90  A    between atoms: _258  and  _260
REMARK   91  A    between atoms: _260  and  _261
REMARK   92  A    between atoms: _260  and  _263
REMARK   93  A    between atoms: _263  and  _264
REMARK   94  A    between atoms: _264  and  _265
REMARK   95  A    between atoms: _270  and  _272
REMARK   96  A    between atoms: _272  and  _273
REMARK   97  A    between atoms: _272  and  _275
REMARK   98  A    between atoms: _275  and  _276
REMARK   99  A    between atoms: _279  and  _281
REMARK  100  A    between atoms: _281  and  _282
REMARK  101  A    between atoms: _285  and  _287
REMARK  102  A    between atoms: _287  and  _288
REMARK  103  A    between atoms: _287  and  _290
REMARK  104  A    between atoms: _293  and  _295
REMARK  105  A    between atoms: _295  and  _296
REMARK  106  A    between atoms: _295  and  _298
REMARK  107  A    between atoms: _298  and  _299
REMARK  108  A    between atoms: _302  and  _304
REMARK  109  A    between atoms: _304  and  _305
REMARK  110  A    between atoms: _307  and  _309
REMARK  111  A    between atoms: _309  and  _310
REMARK  112  A    between atoms: _309  and  _312
REMARK  113  A    between atoms: _312  and  _313
REMARK  114  A    between atoms: _315  and  _317
REMARK  115  A    between atoms: _317  and  _318
REMARK  116  A    between atoms: _317  and  _320
REMARK  117  A    between atoms: _320  and  _321
REMARK  118  A    between atoms: _324  and  _326
REMARK  119  A    between atoms: _326  and  _327
REMARK  120  A    between atoms: _326  and  _329
REMARK  121  A    between atoms: _329  and  _330
REMARK  122  A    between atoms: _333  and  _335
REMARK  123  A    between atoms: _335  and  _336
REMARK  124  A    between atoms: _335  and  _338
REMARK  125  A    between atoms: _338  and  _339
REMARK  126  A    between atoms: _343  and  _344
REMARK  127  A    between atoms: _350  and  _351
REMARK  128  A    between atoms: _356  and  _358
REMARK  129  A    between atoms: _358  and  _359
REMARK  130  A    between atoms: _358  and  _361
REMARK  131  A    between atoms: _361  and  _362
REMARK  132  A    between atoms: _365  and  _367
REMARK  133  A    between atoms: _367  and  _368
REMARK  134  A    between atoms: _367  and  _370
REMARK  135  A    between atoms: _370  and  _371
REMARK  136  A    between atoms: _374  and  _376
REMARK  137  A    between atoms: _376  and  _377
REMARK  138  A    between atoms: _376  and  _379
REMARK  139  A    between atoms: _381  and  _383
REMARK  140  A    between atoms: _383  and  _384
REMARK  141  A    between atoms: _383  and  _386
REMARK  142  A    between atoms: _389  and  _391
REMARK  143  A    between atoms: _391  and  _392
REMARK  144  A    between atoms: _391  and  _394
REMARK  145  A    between atoms: _394  and  _395
REMARK  146  A    between atoms: _405  and  _407
REMARK  147  A    between atoms: _407  and  _408
REMARK  148  A    between atoms: _407  and  _410
REMARK  149  A    between atoms: _410  and  _411
REMARK  150  A    between atoms: _416  and  _418
REMARK  151  A    between atoms: _418  and  _419
REMARK  152  A    between atoms: _418  and  _421
REMARK  153  A    between atoms: _421  and  _422
REMARK  154  A    between atoms: _422  and  _423
REMARK  155  A    between atoms: _423  and  _424
REMARK                            x       y       z     vdW  Elec       q    Type
REMARK                         _______ _______ _______ _____ _____    ______ ____
ROOT
ATOM      1  C   SER A   1      -2.376  -3.065  23.355  0.00  0.00    +0.244 C 
ATOM      2  N   PRO A   2      -2.983  -4.224  23.076  0.00  0.00    -0.273 N 
ATOM      3  CA  PRO A   2      -4.164  -4.769  23.747  0.00  0.00    +0.140 C 
ATOM      4  CB  PRO A   2      -4.702  -5.740  22.709  0.00  0.00    +0.030 C 
ATOM      5  CG  PRO A   2      -3.440  -6.303  22.144  0.00  0.00    +0.024 C 
ATOM      6  CD  PRO A   2      -2.584  -5.087  21.950  0.00  0.00    +0.094 C 
ATOM      7  O   SER A   1      -1.442  -2.652  22.685  0.00  0.00    -0.273 OA
ENDROOT
BRANCH   3   8
ATOM      8  C   PRO A   2      -3.794  -5.490  25.037  0.00  0.00    +0.227 C 
ATOM      9  O   PRO A   2      -2.613  -5.656  25.337  0.00  0.00    -0.286 OA
ENDBRANCH   3   8
BRANCH   1  10
ATOM     10  CA  SER A   1      -2.948  -2.213  24.476  0.00  0.00    +0.175 C 
BRANCH  10  11
ATOM     11  N   SER A   1      -1.917  -1.286  24.880  0.00  0.00    -0.236 NA
ATOM     12  H   SER A   1      -1.479  -0.677  24.160  0.00  0.00    +0.142 HD
ENDBRANCH  10  11
BRANCH  10  13
ATOM     13  CB  SER A   1      -4.163  -1.435  23.965  0.00  0.00    +0.163 C 
BRANCH  13  14
ATOM     14  OG  SER A   1      -4.698  -0.614  24.989  0.00  0.00    -0.380 OA
ATOM     15  H   SER A   1      -4.977  -1.180  25.752  0.00  0.00    +0.211 HD
ENDBRANCH  13  14
ENDBRANCH  10  13
ENDBRANCH   1  10
TORSDOF 5
REMARK  Name = ../refined-set-2016/1g45/1g45_pocket.pdb
REMARK  155 active torsions:
REMARK  status: ('A' for Active; 'I' for Inactive)
REMARK    1  A    between atoms: _1  and  _3
REMARK    2  A    between atoms: _3  and  _4
REMARK    3  A    between atoms: _3  and  _6
REMARK    4  A    between atoms: _6  and  _7
REMARK    5  A    between atoms: _12  and  _14
REMARK    6  A    between atoms: _14  and  _15
REMARK    7  A    between atoms: _14  and  _17
REMARK    8  A    between atoms: _17  and  _18
REMARK    9  A    between atoms: _28  and  _30
REMARK   10  A    between atoms: _30  and  _31
REMARK   11  A    between atoms: _30  and  _33
REMARK   12  A    between atoms: _33  and  _34
REMARK   13  A    between atoms: _39  and  _40
REMARK   14  A    between atoms: _42  and  _44
REMARK   15  A    between atoms: _44  and  _45
REMARK   16  A    between atoms: _44  and  _47
REMARK   17  A    between atoms: _47  and  _48
REMARK   18  A    between atoms: _51  and  _52
REMARK   19  A    between atoms: _57  and  _59
REMARK   20  A    between atoms: _59  and  _60
REMARK   21  A    between atoms: _59  and  _62
REMARK   22  A    between atoms: _62  and  _63
REMARK   23  A    between atoms: _68  and  _70
REMARK   24  A    between atoms: _70  and  _71
REMARK   25  A    between atoms: _74  and  _76
REMARK   26  A    between atoms: _76  and  _77
REMARK   27  A    between atoms: _76  and  _79
REMARK   28  A    between atoms: _79  and  _80
REMARK   29  A    between atoms: _85  and  _87
REMARK   30  A    between atoms: _87  and  _88
REMARK   31  A    between atoms: _87  and  _90
REMARK   32  A    between atoms: _90  and  _91
REMARK   33  A    between atoms: _94  and  _96
REMARK   34  A    between atoms: _96  and  _97
REMARK   35  A    between atoms: _96  and  _99
REMARK   36  A    between atoms: _99  and  _100
REMARK   37  A    between atoms: _100  and  _101
REMARK   38  A    between atoms: _106  and  _108
REMARK   39  A    between atoms: _108  and  _109
REMARK   40  A    between atoms: _108  and  _111
REMARK   41  A    between atoms: _111  and  _112
REMARK   42  A    between atoms: _118  and  _120
REMARK   43  A    between atoms: _131  and  _134
REMARK   44  A    between atoms: _134  and  _135
REMARK   45  A    between atoms: _143  and  _144
REMARK   46  A    between atoms: _152  and  _154
REMARK   47  A    between atoms: _154  and  _155
REMARK   48  A    between atoms: _154  and  _157
REMARK   49  A    between atoms: _157  and  _158
REMARK   50  A    between atoms: _158  and  _159
REMARK   51  A    between atoms: _162  and  _164
REMARK   52  A    between atoms: _164  and  _165
REMARK   53  A    between atoms: _164  and  _167
REMARK   54  A    between atoms: _167  and  _168
REMARK   55  A    between atoms: _173  and  _175
REMARK   56  A    between atoms: _175  and  _176
REMARK   57  A    between atoms: _175  and  _178
REMARK   58  A    between atoms: _178  and  _179
REMARK   59  A    between atoms: _179  and  _180
REMARK   60  A    between atoms: _183  and  _185
REMARK   61  A    between atoms: _185  and  _186
REMARK   62  A    between atoms: _185  and  _188
REMARK   63  A    between atoms: _188  and  _189
REMARK   64  A    between atoms: _192  and  _194
REMARK   65  A    between atoms: _194  and  _195
REMARK   66  A    between atoms: _194  and  _197
REMARK   67  A    between atoms: _197  and  _198
REMARK   68  A    between atoms: _199  and  ZN_433
REMARK   69  A    between atoms: _203  and  _205
REMARK   70  A    between atoms: _205  and  _206
REMARK   71  A    between atoms: _205  and  _208
REMARK   72  A    between atoms: _208  and  _209
REMARK   73  A    between atoms: _212  and  _214
REMARK   74  A    between atoms: _214  and  _215
REMARK   75  A    between atoms: _214  and  _217
REMARK   76  A    between atoms: _220  and  _222
REMARK   77  A    between atoms: _222  and  _223
REMARK   78  A    between atoms: _222  and  _225
REMARK   79  A    between atoms: _225  and  _226
REMARK   80  A    between atoms: _231  and  _233
REMARK   81  A    between atoms: _233  and  _234
REMARK   82  A    between atoms: _233  and  _236
REMARK   83  A    between atoms: _239  and  _241
REMARK   84  A    between atoms: _241  and  _242
REMARK   85  A    between atoms: _244  and  _246
REMARK   86  A    between atoms: _246  and  _247
REMARK   87  A    between atoms: _250  and  _252
REMARK   88  A    between atoms: _252  and  _253
REMARK   89  A    between atoms: _252  and  _255
REMARK   90  A    between atoms: _258  and  _260
REMARK   91  A    between atoms: _260  and  _261
REMARK   92  A    between atoms: _260  and  _263
REMARK   93  A    between atoms: _263  and  _264
REMARK   94  A    between atoms: _264  and  _265
REMARK   95  A    between atoms: _270  and  _272
REMARK   96  A    between atoms: _272  and  _273
REMARK   97  A    between atoms: _272  and  _275
REMARK   98  A    between atoms: _275  and  _276
REMARK   99  A    between atoms: _279  and  _281
REMARK  100  A    between atoms: _281  and  _282
REMARK  101  A    between atoms: _285  and  _287
REMARK  102  A    between atoms: _287  and  _288
REMARK  103  A    between atoms: _287  and  _290
REMARK  104  A    between atoms: _293  and  _295
REMARK  105  A    between atoms: _295  and  _296
REMARK  106  A    between atoms: _295  and  _298
REMARK  107  A    between atoms: _298  and  _299
REMARK  108  A    between atoms: _302  and  _304
REMARK  109  A    between atoms: _304  and  _305
REMARK  110  A    between atoms: _307  and  _309
REMARK  111  A    between atoms: _309  and  _310
REMARK  112  A    between atoms: _309  and  _312
REMARK  113  A    between atoms: _312  and  _313
REMARK  114  A    between atoms: _315  and  _317
REMARK  115  A    between atoms: _317  and  _318
REMARK  116  A    between atoms: _317  and  _320
REMARK  117  A    between atoms: _320  and  _321
REMARK  118  A    between atoms: _324  and  _326
REMARK  119  A    between atoms: _326  and  _327
REMARK  120  A    between atoms: _326  and  _329
REMARK  121  A    between atoms: _329  and  _330
REMARK  122  A    between atoms: _333  and  _335
REMARK  123  A    between atoms: _335  and  _336
REMARK  124  A    between atoms: _335  and  _338
REMARK  125  A    between atoms: _338  and  _339
REMARK  126  A    between atoms: _343  and  _344
REMARK  127  A    between atoms: _350  and  _351
REMARK  128  A    between atoms: _356  and  _358
REMARK  129  A    between atoms: _358  and  _359
REMARK  130  A    between atoms: _358  and  _361
REMARK  131  A    between atoms: _361  and  _362
REMARK  132  A    between atoms: _365  and  _367
REMARK  133  A    between atoms: _367  and  _368
REMARK  134  A    between atoms: _367  and  _370
REMARK  135  A    between atoms: _370  and  _371
REMARK  136  A    between atoms: _374  and  _376
REMARK  137  A    between atoms: _376  and  _377
REMARK  138  A    between atoms: _376  and  _379
REMARK  139  A    between atoms: _381  and  _383
REMARK  140  A    between atoms: _383  and  _384
REMARK  141  A    between atoms: _383  and  _386
REMARK  142  A    between atoms: _389  and  _391
REMARK  143  A    between atoms: _391  and  _392
REMARK  144  A    between atoms: _391  and  _394
REMARK  145  A    between atoms: _394  and  _395
REMARK  146  A    between atoms: _405  and  _407
REMARK  147  A    between atoms: _407  and  _408
REMARK  148  A    between atoms: _407  and  _410
REMARK  149  A    between atoms: _410  and  _411
REMARK  150  A    between atoms: _416  and  _418
REMARK  151  A    between atoms: _418  and  _419
REMARK  152  A    between atoms: _418  and  _421
REMARK  153  A    between atoms: _421  and  _422
REMARK  154  A    between atoms: _422  and  _423
REMARK  155  A    between atoms: _423  and  _424
REMARK                            x       y       z     vdW  Elec       q    Type
REMARK                         _______ _______ _______ _____ _____    ______ ____
ROOT
ATOM      1  CB  ASN A   1      -2.715   2.201   5.253  0.00  0.00    +0.110 C 
ENDROOT
BRANCH   1   2
ATOM      2  CG  ASN A   1      -3.069   1.388   6.487  0.00  0.00    +0.221 C 
ATOM      3  ND2 ASN A   1      -3.711   2.034   7.446  0.00  0.00    -0.329 N 
ATOM      4 HD21 ASN A   1      -3.980   1.536   8.318  0.00  0.00    +0.145 HD
ATOM      5 HD22 ASN A   1      -3.947   3.040   7.328  0.00  0.00    +0.145 HD
ATOM      6  OD1 ASN A   1      -2.766   0.194   6.578  0.00  0.00    -0.275 OA
ENDBRANCH   1   2
BRANCH   1   7
ATOM      7  CA  ASN A   1      -2.349   1.323   4.048  0.00  0.00    +0.142 C 
BRANCH   7   8
ATOM      8  N   ASN A   1      -3.499   0.527   3.617  0.00  0.00    -0.239 NA
ATOM      9  H   ASN A   1      -4.120   0.091   4.328  0.00  0.00    +0.142 HD
ENDBRANCH   7   8
BRANCH   7  10
ATOM     10  C   ASN A   1      -1.098   0.481   4.357  0.00  0.00    +0.225 C 
ATOM     11  O   ASN A   1      -0.171   0.961   5.015  0.00  0.00    -0.287 OA
ENDBRANCH   7  10
ENDBRANCH   1   7
TORSDOF 4
REMARK  Name = ../refined-set-2016/1g45/1g45_pocket.pdb
REMARK  155 active torsions:
REMARK  status: ('A' for Active; 'I' for Inactive)
REMARK    1  A    between atoms: _1  and  _3
REMARK    2  A    between atoms: _3  and  _4
REMARK    3  A    between atoms: _3  and  _6
REMARK    4  A    between atoms: _6  and  _7
REMARK    5  A    between atoms: _12  and  _14
REMARK    6  A    between atoms: _14  and  _15
REMARK    7  A    between atoms: _14  and  _17
REMARK    8  A    between atoms: _17  and  _18
REMARK    9  A    between atoms: _28  and  _30
REMARK   10  A    between atoms: _30  and  _31
REMARK   11  A    between atoms: _30  and  _33
REMARK   12  A    between atoms: _33  and  _34
REMARK   13  A    between atoms: _39  and  _40
REMARK   14  A    between atoms: _42  and  _44
REMARK   15  A    between atoms: _44  and  _45
REMARK   16  A    between atoms: _44  and  _47
REMARK   17  A    between atoms: _47  and  _48
REMARK   18  A    between atoms: _51  and  _52
REMARK   19  A    between atoms: _57  and  _59
REMARK   20  A    between atoms: _59  and  _60
REMARK   21  A    between atoms: _59  and  _62
REMARK   22  A    between atoms: _62  and  _63
REMARK   23  A    between atoms: _68  and  _70
REMARK   24  A    between atoms: _70  and  _71
REMARK   25  A    between atoms: _74  and  _76
REMARK   26  A    between atoms: _76  and  _77
REMARK   27  A    between atoms: _76  and  _79
REMARK   28  A    between atoms: _79  and  _80
REMARK   29  A    between atoms: _85  and  _87
REMARK   30  A    between atoms: _87  and  _88
REMARK   31  A    between atoms: _87  and  _90
REMARK   32  A    between atoms: _90  and  _91
REMARK   33  A    between atoms: _94  and  _96
REMARK   34  A    between atoms: _96  and  _97
REMARK   35  A    between atoms: _96  and  _99
REMARK   36  A    between atoms: _99  and  _100
REMARK   37  A    between atoms: _100  and  _101
REMARK   38  A    between atoms: _106  and  _108
REMARK   39  A    between atoms: _108  and  _109
REMARK   40  A    between atoms: _108  and  _111
REMARK   41  A    between atoms: _111  and  _112
REMARK   42  A    between atoms: _118  and  _120
REMARK   43  A    between atoms: _131  and  _134
REMARK   44  A    between atoms: _134  and  _135
REMARK   45  A    between atoms: _143  and  _144
REMARK   46  A    between atoms: _152  and  _154
REMARK   47  A    between atoms: _154  and  _155
REMARK   48  A    between atoms: _154  and  _157
REMARK   49  A    between atoms: _157  and  _158
REMARK   50  A    between atoms: _158  and  _159
REMARK   51  A    between atoms: _162  and  _164
REMARK   52  A    between atoms: _164  and  _165
REMARK   53  A    between atoms: _164  and  _167
REMARK   54  A    between atoms: _167  and  _168
REMARK   55  A    between atoms: _173  and  _175
REMARK   56  A    between atoms: _175  and  _176
REMARK   57  A    between atoms: _175  and  _178
REMARK   58  A    between atoms: _178  and  _179
REMARK   59  A    between atoms: _179  and  _180
REMARK   60  A    between atoms: _183  and  _185
REMARK   61  A    between atoms: _185  and  _186
REMARK   62  A    between atoms: _185  and  _188
REMARK   63  A    between atoms: _188  and  _189
REMARK   64  A    between atoms: _192  and  _194
REMARK   65  A    between atoms: _194  and  _195
REMARK   66  A    between atoms: _194  and  _197
REMARK   67  A    between atoms: _197  and  _198
REMARK   68  A    between atoms: _199  and  ZN_433
REMARK   69  A    between atoms: _203  and  _205
REMARK   70  A    between atoms: _205  and  _206
REMARK   71  A    between atoms: _205  and  _208
REMARK   72  A    between atoms: _208  and  _209
REMARK   73  A    between atoms: _212  and  _214
REMARK   74  A    between atoms: _214  and  _215
REMARK   75  A    between atoms: _214  and  _217
REMARK   76  A    between atoms: _220  and  _222
REMARK   77  A    between atoms: _222  and  _223
REMARK   78  A    between atoms: _222  and  _225
REMARK   79  A    between atoms: _225  and  _226
REMARK   80  A    between atoms: _231  and  _233
REMARK   81  A    between atoms: _233  and  _234
REMARK   82  A    between atoms: _233  and  _236
REMARK   83  A    between atoms: _239  and  _241
REMARK   84  A    between atoms: _241  and  _242
REMARK   85  A    between atoms: _244  and  _246
REMARK   86  A    between atoms: _246  and  _247
REMARK   87  A    between atoms: _250  and  _252
REMARK   88  A    between atoms: _252  and  _253
REMARK   89  A    between atoms: _252  and  _255
REMARK   90  A    between atoms: _258  and  _260
REMARK   91  A    between atoms: _260  and  _261
REMARK   92  A    between atoms: _260  and  _263
REMARK   93  A    between atoms: _263  and  _264
REMARK   94  A    between atoms: _264  and  _265
REMARK   95  A    between atoms: _270  and  _272
REMARK   96  A    between atoms: _272  and  _273
REMARK   97  A    between atoms: _272  and  _275
REMARK   98  A    between atoms: _275  and  _276
REMARK   99  A    between atoms: _279  and  _281
REMARK  100  A    between atoms: _281  and  _282
REMARK  101  A    between atoms: _285  and  _287
REMARK  102  A    between atoms: _287  and  _288
REMARK  103  A    between atoms: _287  and  _290
REMARK  104  A    between atoms: _293  and  _295
REMARK  105  A    between atoms: _295  and  _296
REMARK  106  A    between atoms: _295  and  _298
REMARK  107  A    between atoms: _298  and  _299
REMARK  108  A    between atoms: _302  and  _304
REMARK  109  A    between atoms: _304  and  _305
REMARK  110  A    between atoms: _307  and  _309
REMARK  111  A    between atoms: _309  and  _310
REMARK  112  A    between atoms: _309  and  _312
REMARK  113  A    between atoms: _312  and  _313
REMARK  114  A    between atoms: _315  and  _317
REMARK  115  A    between atoms: _317  and  _318
REMARK  116  A    between atoms: _317  and  _320
REMARK  117  A    between atoms: _320  and  _321
REMARK  118  A    between atoms: _324  and  _326
REMARK  119  A    between atoms: _326  and  _327
REMARK  120  A    between atoms: _326  and  _329
REMARK  121  A    between atoms: _329  and  _330
REMARK  122  A    between atoms: _333  and  _335
REMARK  123  A    between atoms: _335  and  _336
REMARK  124  A    between atoms: _335  and  _338
REMARK  125  A    between atoms: _338  and  _339
REMARK  126  A    between atoms: _343  and  _344
REMARK  127  A    between atoms: _350  and  _351
REMARK  128  A    between atoms: _356  and  _358
REMARK  129  A    between atoms: _358  and  _359
REMARK  130  A    between atoms: _358  and  _361
REMARK  131  A    between atoms: _361  and  _362
REMARK  132  A    between atoms: _365  and  _367
REMARK  133  A    between atoms: _367  and  _368
REMARK  134  A    between atoms: _367  and  _370
REMARK  135  A    between atoms: _370  and  _371
REMARK  136  A    between atoms: _374  and  _376
REMARK  137  A    between atoms: _376  and  _377
REMARK  138  A    between atoms: _376  and  _379
REMARK  139  A    between atoms: _381  and  _383
REMARK  140  A    between atoms: _383  and  _384
REMARK  141  A    between atoms: _383  and  _386
REMARK  142  A    between atoms: _389  and  _391
REMARK  143  A    between atoms: _391  and  _392
REMARK  144  A    between atoms: _391  and  _394
REMARK  145  A    between atoms: _394  and  _395
REMARK  146  A    between atoms: _405  and  _407
REMARK  147  A    between atoms: _407  and  _408
REMARK  148  A    between atoms: _407  and  _410
REMARK  149  A    between atoms: _410  and  _411
REMARK  150  A    between atoms: _416  and  _418
REMARK  151  A    between atoms: _418  and  _419
REMARK  152  A    between atoms: _418  and  _421
REMARK  153  A    between atoms: _421  and  _422
REMARK  154  A    between atoms: _422  and  _423
REMARK  155  A    between atoms: _423  and  _424
REMARK                            x       y       z     vdW  Elec       q    Type
REMARK                         _______ _______ _______ _____ _____    ______ ____
ROOT
ATOM      1  CA  ALA A   1      -4.680  -3.320   7.289  0.00  0.00    +0.133 C 
ATOM      2  CB  ALA A   1      -5.280  -3.085   8.691  0.00  0.00    +0.027 C 
ENDROOT
BRANCH   1   3
ATOM      3  N   ALA A   1      -3.312  -2.832   7.248  0.00  0.00    -0.239 NA
ATOM      4  H   ALA A   1      -3.111  -2.001   6.656  0.00  0.00    +0.142 HD
ENDBRANCH   1   3
BRANCH   1   5
ATOM      5  C   ALA A   1      -5.409  -2.455   6.261  0.00  0.00    +0.224 C 
ATOM      6  O   ALA A   1      -4.764  -1.735   5.493  0.00  0.00    -0.287 OA
ENDBRANCH   1   5
TORSDOF 2
REMARK  Name = ../refined-set-2016/1g45/1g45_pocket.pdb
REMARK  155 active torsions:
REMARK  status: ('A' for Active; 'I' for Inactive)
REMARK    1  A    between atoms: _1  and  _3
REMARK    2  A    between atoms: _3  and  _4
REMARK    3  A    between atoms: _3  and  _6
REMARK    4  A    between atoms: _6  and  _7
REMARK    5  A    between atoms: _12  and  _14
REMARK    6  A    between atoms: _14  and  _15
REMARK    7  A    between atoms: _14  and  _17
REMARK    8  A    between atoms: _17  and  _18
REMARK    9  A    between atoms: _28  and  _30
REMARK   10  A    between atoms: _30  and  _31
REMARK   11  A    between atoms: _30  and  _33
REMARK   12  A    between atoms: _33  and  _34
REMARK   13  A    between atoms: _39  and  _40
REMARK   14  A    between atoms: _42  and  _44
REMARK   15  A    between atoms: _44  and  _45
REMARK   16  A    between atoms: _44  and  _47
REMARK   17  A    between atoms: _47  and  _48
REMARK   18  A    between atoms: _51  and  _52
REMARK   19  A    between atoms: _57  and  _59
REMARK   20  A    between atoms: _59  and  _60
REMARK   21  A    between atoms: _59  and  _62
REMARK   22  A    between atoms: _62  and  _63
REMARK   23  A    between atoms: _68  and  _70
REMARK   24  A    between atoms: _70  and  _71
REMARK   25  A    between atoms: _74  and  _76
REMARK   26  A    between atoms: _76  and  _77
REMARK   27  A    between atoms: _76  and  _79
REMARK   28  A    between atoms: _79  and  _80
REMARK   29  A    between atoms: _85  and  _87
REMARK   30  A    between atoms: _87  and  _88
REMARK   31  A    between atoms: _87  and  _90
REMARK   32  A    between atoms: _90  and  _91
REMARK   33  A    between atoms: _94  and  _96
REMARK   34  A    between atoms: _96  and  _97
REMARK   35  A    between atoms: _96  and  _99
REMARK   36  A    between atoms: _99  and  _100
REMARK   37  A    between atoms: _100  and  _101
REMARK   38  A    between atoms: _106  and  _108
REMARK   39  A    between atoms: _108  and  _109
REMARK   40  A    between atoms: _108  and  _111
REMARK   41  A    between atoms: _111  and  _112
REMARK   42  A    between atoms: _118  and  _120
REMARK   43  A    between atoms: _131  and  _134
REMARK   44  A    between atoms: _134  and  _135
REMARK   45  A    between atoms: _143  and  _144
REMARK   46  A    between atoms: _152  and  _154
REMARK   47  A    between atoms: _154  and  _155
REMARK   48  A    between atoms: _154  and  _157
REMARK   49  A    between atoms: _157  and  _158
REMARK   50  A    between atoms: _158  and  _159
REMARK   51  A    between atoms: _162  and  _164
REMARK   52  A    between atoms: _164  and  _165
REMARK   53  A    between atoms: _164  and  _167
REMARK   54  A    between atoms: _167  and  _168
REMARK   55  A    between atoms: _173  and  _175
REMARK   56  A    between atoms: _175  and  _176
REMARK   57  A    between atoms: _175  and  _178
REMARK   58  A    between atoms: _178  and  _179
REMARK   59  A    between atoms: _179  and  _180
REMARK   60  A    between atoms: _183  and  _185
REMARK   61  A    between atoms: _185  and  _186
REMARK   62  A    between atoms: _185  and  _188
REMARK   63  A    between atoms: _188  and  _189
REMARK   64  A    between atoms: _192  and  _194
REMARK   65  A    between atoms: _194  and  _195
REMARK   66  A    between atoms: _194  and  _197
REMARK   67  A    between atoms: _197  and  _198
REMARK   68  A    between atoms: _199  and  ZN_433
REMARK   69  A    between atoms: _203  and  _205
REMARK   70  A    between atoms: _205  and  _206
REMARK   71  A    between atoms: _205  and  _208
REMARK   72  A    between atoms: _208  and  _209
REMARK   73  A    between atoms: _212  and  _214
REMARK   74  A    between atoms: _214  and  _215
REMARK   75  A    between atoms: _214  and  _217
REMARK   76  A    between atoms: _220  and  _222
REMARK   77  A    between atoms: _222  and  _223
REMARK   78  A    between atoms: _222  and  _225
REMARK   79  A    between atoms: _225  and  _226
REMARK   80  A    between atoms: _231  and  _233
REMARK   81  A    between atoms: _233  and  _234
REMARK   82  A    between atoms: _233  and  _236
REMARK   83  A    between atoms: _239  and  _241
REMARK   84  A    between atoms: _241  and  _242
REMARK   85  A    between atoms: _244  and  _246
REMARK   86  A    between atoms: _246  and  _247
REMARK   87  A    between atoms: _250  and  _252
REMARK   88  A    between atoms: _252  and  _253
REMARK   89  A    between atoms: _252  and  _255
REMARK   90  A    between atoms: _258  and  _260
REMARK   91  A    between atoms: _260  and  _261
REMARK   92  A    between atoms: _260  and  _263
REMARK   93  A    between atoms: _263  and  _264
REMARK   94  A    between atoms: _264  and  _265
REMARK   95  A    between atoms: _270  and  _272
REMARK   96  A    between atoms: _272  and  _273
REMARK   97  A    between atoms: _272  and  _275
REMARK   98  A    between atoms: _275  and  _276
REMARK   99  A    between atoms: _279  and  _281
REMARK  100  A    between atoms: _281  and  _282
REMARK  101  A    between atoms: _285  and  _287
REMARK  102  A    between atoms: _287  and  _288
REMARK  103  A    between atoms: _287  and  _290
REMARK  104  A    between atoms: _293  and  _295
REMARK  105  A    between atoms: _295  and  _296
REMARK  106  A    between atoms: _295  and  _298
REMARK  107  A    between atoms: _298  and  _299
REMARK  108  A    between atoms: _302  and  _304
REMARK  109  A    between atoms: _304  and  _305
REMARK  110  A    between atoms: _307  and  _309
REMARK  111  A    between atoms: _309  and  _310
REMARK  112  A    between atoms: _309  and  _312
REMARK  113  A    between atoms: _312  and  _313
REMARK  114  A    between atoms: _315  and  _317
REMARK  115  A    between atoms: _317  and  _318
REMARK  116  A    between atoms: _317  and  _320
REMARK  117  A    between atoms: _320  and  _321
REMARK  118  A    between atoms: _324  and  _326
REMARK  119  A    between atoms: _326  and  _327
REMARK  120  A    between atoms: _326  and  _329
REMARK  121  A    between atoms: _329  and  _330
REMARK  122  A    between atoms: _333  and  _335
REMARK  123  A    between atoms: _335  and  _336
REMARK  124  A    between atoms: _335  and  _338
REMARK  125  A    between atoms: _338  and  _339
REMARK  126  A    between atoms: _343  and  _344
REMARK  127  A    between atoms: _350  and  _351
REMARK  128  A    between atoms: _356  and  _358
REMARK  129  A    between atoms: _358  and  _359
REMARK  130  A    between atoms: _358  and  _361
REMARK  131  A    between atoms: _361  and  _362
REMARK  132  A    between atoms: _365  and  _367
REMARK  133  A    between atoms: _367  and  _368
REMARK  134  A    between atoms: _367  and  _370
REMARK  135  A    between atoms: _370  and  _371
REMARK  136  A    between atoms: _374  and  _376
REMARK  137  A    between atoms: _376  and  _377
REMARK  138  A    between atoms: _376  and  _379
REMARK  139  A    between atoms: _381  and  _383
REMARK  140  A    between atoms: _383  and  _384
REMARK  141  A    between atoms: _383  and  _386
REMARK  142  A    between atoms: _389  and  _391
REMARK  143  A    between atoms: _391  and  _392
REMARK  144  A    between atoms: _391  and  _394
REMARK  145  A    between atoms: _394  and  _395
REMARK  146  A    between atoms: _405  and  _407
REMARK  147  A    between atoms: _407  and  _408
REMARK  148  A    between atoms: _407  and  _410
REMARK  149  A    between atoms: _410  and  _411
REMARK  150  A    between atoms: _416  and  _418
REMARK  151  A    between atoms: _418  and  _419
REMARK  152  A    between atoms: _418  and  _421
REMARK  153  A    between atoms: _421  and  _422
REMARK  154  A    between atoms: _422  and  _423
REMARK  155  A    between atoms: _423  and  _424
REMARK                            x       y       z     vdW  Elec       q    Type
REMARK                         _______ _______ _______ _____ _____    ______ ____
ROOT
ATOM      1  CB  ASN A   1      -8.503   2.602   6.979  0.00  0.00    +0.110 C 
ENDROOT
BRANCH   1   2
ATOM      2  CG  ASN A   1      -7.421   2.340   8.032  0.00  0.00    +0.221 C 
ATOM      3  ND2 ASN A   1      -7.307   1.112   8.507  0.00  0.00    -0.329 N 
ATOM      4 HD21 ASN A   1      -6.580   0.895   9.219  0.00  0.00    +0.145 HD
ATOM      5 HD22 ASN A   1      -7.944   0.363   8.169  0.00  0.00    +0.145 HD
ATOM      6  OD1 ASN A   1      -6.690   3.259   8.402  0.00  0.00    -0.275 OA
ENDBRANCH   1   2
BRANCH   1   7
ATOM      7  CA  ASN A   1      -9.333   1.354   6.612  0.00  0.00    +0.142 C 
BRANCH   7   8
ATOM      8  N   ASN A   1      -8.529   0.404   5.857  0.00  0.00    -0.239 NA
ATOM      9  H   ASN A   1      -8.017   0.740   5.016  0.00  0.00    +0.142 HD
ENDBRANCH   7   8
BRANCH   7  10
ATOM     10  C   ASN A   1     -10.495   1.856   5.777  0.00  0.00    +0.225 C 
ATOM     11  O   ASN A   1     -10.335   2.115   4.578  0.00  0.00    -0.287 OA
ENDBRANCH   7  10
ENDBRANCH   1   7
TORSDOF 4
REMARK  Name = ../refined-set-2016/1g45/1g45_pocket.pdb
REMARK  155 active torsions:
REMARK  status: ('A' for Active; 'I' for Inactive)
REMARK    1  A    between atoms: _1  and  _3
REMARK    2  A    between atoms: _3  and  _4
REMARK    3  A    between atoms: _3  and  _6
REMARK    4  A    between atoms: _6  and  _7
REMARK    5  A    between atoms: _12  and  _14
REMARK    6  A    between atoms: _14  and  _15
REMARK    7  A    between atoms: _14  and  _17
REMARK    8  A    between atoms: _17  and  _18
REMARK    9  A    between atoms: _28  and  _30
REMARK   10  A    between atoms: _30  and  _31
REMARK   11  A    between atoms: _30  and  _33
REMARK   12  A    between atoms: _33  and  _34
REMARK   13  A    between atoms: _39  and  _40
REMARK   14  A    between atoms: _42  and  _44
REMARK   15  A    between atoms: _44  and  _45
REMARK   16  A    between atoms: _44  and  _47
REMARK   17  A    between atoms: _47  and  _48
REMARK   18  A    between atoms: _51  and  _52
REMARK   19  A    between atoms: _57  and  _59
REMARK   20  A    between atoms: _59  and  _60
REMARK   21  A    between atoms: _59  and  _62
REMARK   22  A    between atoms: _62  and  _63
REMARK   23  A    between atoms: _68  and  _70
REMARK   24  A    between atoms: _70  and  _71
REMARK   25  A    between atoms: _74  and  _76
REMARK   26  A    between atoms: _76  and  _77
REMARK   27  A    between atoms: _76  and  _79
REMARK   28  A    between atoms: _79  and  _80
REMARK   29  A    between atoms: _85  and  _87
REMARK   30  A    between atoms: _87  and  _88
REMARK   31  A    between atoms: _87  and  _90
REMARK   32  A    between atoms: _90  and  _91
REMARK   33  A    between atoms: _94  and  _96
REMARK   34  A    between atoms: _96  and  _97
REMARK   35  A    between atoms: _96  and  _99
REMARK   36  A    between atoms: _99  and  _100
REMARK   37  A    between atoms: _100  and  _101
REMARK   38  A    between atoms: _106  and  _108
REMARK   39  A    between atoms: _108  and  _109
REMARK   40  A    between atoms: _108  and  _111
REMARK   41  A    between atoms: _111  and  _112
REMARK   42  A    between atoms: _118  and  _120
REMARK   43  A    between atoms: _131  and  _134
REMARK   44  A    between atoms: _134  and  _135
REMARK   45  A    between atoms: _143  and  _144
REMARK   46  A    between atoms: _152  and  _154
REMARK   47  A    between atoms: _154  and  _155
REMARK   48  A    between atoms: _154  and  _157
REMARK   49  A    between atoms: _157  and  _158
REMARK   50  A    between atoms: _158  and  _159
REMARK   51  A    between atoms: _162  and  _164
REMARK   52  A    between atoms: _164  and  _165
REMARK   53  A    between atoms: _164  and  _167
REMARK   54  A    between atoms: _167  and  _168
REMARK   55  A    between atoms: _173  and  _175
REMARK   56  A    between atoms: _175  and  _176
REMARK   57  A    between atoms: _175  and  _178
REMARK   58  A    between atoms: _178  and  _179
REMARK   59  A    between atoms: _179  and  _180
REMARK   60  A    between atoms: _183  and  _185
REMARK   61  A    between atoms: _185  and  _186
REMARK   62  A    between atoms: _185  and  _188
REMARK   63  A    between atoms: _188  and  _189
REMARK   64  A    between atoms: _192  and  _194
REMARK   65  A    between atoms: _194  and  _195
REMARK   66  A    between atoms: _194  and  _197
REMARK   67  A    between atoms: _197  and  _198
REMARK   68  A    between atoms: _199  and  ZN_433
REMARK   69  A    between atoms: _203  and  _205
REMARK   70  A    between atoms: _205  and  _206
REMARK   71  A    between atoms: _205  and  _208
REMARK   72  A    between atoms: _208  and  _209
REMARK   73  A    between atoms: _212  and  _214
REMARK   74  A    between atoms: _214  and  _215
REMARK   75  A    between atoms: _214  and  _217
REMARK   76  A    between atoms: _220  and  _222
REMARK   77  A    between atoms: _222  and  _223
REMARK   78  A    between atoms: _222  and  _225
REMARK   79  A    between atoms: _225  and  _226
REMARK   80  A    between atoms: _231  and  _233
REMARK   81  A    between atoms: _233  and  _234
REMARK   82  A    between atoms: _233  and  _236
REMARK   83  A    between atoms: _239  and  _241
REMARK   84  A    between atoms: _241  and  _242
REMARK   85  A    between atoms: _244  and  _246
REMARK   86  A    between atoms: _246  and  _247
REMARK   87  A    between atoms: _250  and  _252
REMARK   88  A    between atoms: _252  and  _253
REMARK   89  A    between atoms: _252  and  _255
REMARK   90  A    between atoms: _258  and  _260
REMARK   91  A    between atoms: _260  and  _261
REMARK   92  A    between atoms: _260  and  _263
REMARK   93  A    between atoms: _263  and  _264
REMARK   94  A    between atoms: _264  and  _265
REMARK   95  A    between atoms: _270  and  _272
REMARK   96  A    between atoms: _272  and  _273
REMARK   97  A    between atoms: _272  and  _275
REMARK   98  A    between atoms: _275  and  _276
REMARK   99  A    between atoms: _279  and  _281
REMARK  100  A    between atoms: _281  and  _282
REMARK  101  A    between atoms: _285  and  _287
REMARK  102  A    between atoms: _287  and  _288
REMARK  103  A    between atoms: _287  and  _290
REMARK  104  A    between atoms: _293  and  _295
REMARK  105  A    between atoms: _295  and  _296
REMARK  106  A    between atoms: _295  and  _298
REMARK  107  A    between atoms: _298  and  _299
REMARK  108  A    between atoms: _302  and  _304
REMARK  109  A    between atoms: _304  and  _305
REMARK  110  A    between atoms: _307  and  _309
REMARK  111  A    between atoms: _309  and  _310
REMARK  112  A    between atoms: _309  and  _312
REMARK  113  A    between atoms: _312  and  _313
REMARK  114  A    between atoms: _315  and  _317
REMARK  115  A    between atoms: _317  and  _318
REMARK  116  A    between atoms: _317  and  _320
REMARK  117  A    between atoms: _320  and  _321
REMARK  118  A    between atoms: _324  and  _326
REMARK  119  A    between atoms: _326  and  _327
REMARK  120  A    between atoms: _326  and  _329
REMARK  121  A    between atoms: _329  and  _330
REMARK  122  A    between atoms: _333  and  _335
REMARK  123  A    between atoms: _335  and  _336
REMARK  124  A    between atoms: _335  and  _338
REMARK  125  A    between atoms: _338  and  _339
REMARK  126  A    between atoms: _343  and  _344
REMARK  127  A    between atoms: _350  and  _351
REMARK  128  A    between atoms: _356  and  _358
REMARK  129  A    between atoms: _358  and  _359
REMARK  130  A    between atoms: _358  and  _361
REMARK  131  A    between atoms: _361  and  _362
REMARK  132  A    between atoms: _365  and  _367
REMARK  133  A    between atoms: _367  and  _368
REMARK  134  A    between atoms: _367  and  _370
REMARK  135  A    between atoms: _370  and  _371
REMARK  136  A    between atoms: _374  and  _376
REMARK  137  A    between atoms: _376  and  _377
REMARK  138  A    between atoms: _376  and  _379
REMARK  139  A    between atoms: _381  and  _383
REMARK  140  A    between atoms: _383  and  _384
REMARK  141  A    between atoms: _383  and  _386
REMARK  142  A    between atoms: _389  and  _391
REMARK  143  A    between atoms: _391  and  _392
REMARK  144  A    between atoms: _391  and  _394
REMARK  145  A    between atoms: _394  and  _395
REMARK  146  A    between atoms: _405  and  _407
REMARK  147  A    between atoms: _407  and  _408
REMARK  148  A    between atoms: _407  and  _410
REMARK  149  A    between atoms: _410  and  _411
REMARK  150  A    between atoms: _416  and  _418
REMARK  151  A    between atoms: _418  and  _419
REMARK  152  A    between atoms: _418  and  _421
REMARK  153  A    between atoms: _421  and  _422
REMARK  154  A    between atoms: _422  and  _423
REMARK  155  A    between atoms: _423  and  _424
REMARK                            x       y       z     vdW  Elec       q    Type
REMARK                         _______ _______ _______ _____ _____    ______ ____
ROOT
ATOM      1  C   UNK A   4     -10.331  -1.456  10.421  0.00  0.00    +0.000 C 
ATOM      2  C   UNK A   4     -10.442  -2.740  11.218  0.00  0.00    +0.000 C 
ATOM      3  O   UNK A   4     -11.136  -2.786  12.227  0.00  0.00    +0.000 OA
ATOM      4  N   VAL A   5      -9.761  -3.785  10.764  0.00  0.00    +0.000 N 
ATOM      5  CA  VAL A   5      -9.783  -5.084  11.437  0.00  0.00    +0.000 C 
ATOM      6  C   VAL A   5      -8.354  -5.579  11.620  0.00  0.00    +0.000 C 
ATOM      7  N   UNK A   6      -8.210  -6.581  12.470  0.00  0.00    +0.000 N 
ATOM      8  H   UNK A   6      -9.047  -6.913  12.991  0.00  0.00    +0.000 HD
ATOM      9  C   UNK A   6      -6.940  -7.239  12.710  0.00  0.00    +0.000 C 
ATOM     10  C   UNK A   6      -6.429  -6.945  14.126  0.00  0.00    +0.000 C 
ATOM     11  C   UNK A   6      -6.128  -5.497  14.368  0.00  0.00    +0.000 A 
ATOM     12  C   UNK A   6      -6.951  -4.478  14.722  0.00  0.00    +0.000 A 
ATOM     13  N   UNK A   6      -6.236  -3.283  14.804  0.00  0.00    +0.000 N 
ATOM     14 ZN   UNK A   6      -6.864  -1.672  15.299  0.00  0.00    +0.000 Zn
ATOM     15  N   UNK A   4      -7.436  -0.733  13.889  0.00  0.00    +0.000 N 
ATOM     16  C   UNK A   4      -7.960   0.463  13.685  0.00  0.00    +0.000 A 
ATOM     17  N   UNK A   4      -8.508   0.559  12.461  0.00  0.00    +0.000 NA
ATOM     18  C   UNK A   4      -8.345  -0.646  11.821  0.00  0.00    +0.000 A 
ATOM     19  C   UNK A   4      -7.676  -1.436  12.700  0.00  0.00    +0.000 A 
ATOM     20  C   UNK A   6      -4.993  -3.616  14.496  0.00  0.00    +0.000 A 
ATOM     21  N   UNK A   6      -4.882  -4.930  14.229  0.00  0.00    +0.000 NA
ATOM     22  O   VAL A   5      -7.424  -5.109  10.972  0.00  0.00    +0.000 OA
ATOM     23  H   VAL A   5      -9.192  -3.677   9.900  0.00  0.00    +0.000 HD
ATOM     24  C   UNK A   4      -8.870  -0.948  10.446  0.00  0.00    +0.000 C 
ENDROOT
BRANCH  14  25
ATOM     25  N   UNK A   6      -8.243  -2.265  16.448  0.00  0.00    +0.000 N 
ATOM     26  C   UNK A   6      -7.906  -3.189  17.329  0.00  0.00    +0.000 A 
ATOM     27  N   UNK A   6      -8.970  -3.615  18.036  0.00  0.00    +0.000 NA
ATOM     28  C   UNK A   6     -10.063  -2.922  17.577  0.00  0.00    +0.000 A 
ATOM     29  C   UNK A   6      -9.608  -2.092  16.600  0.00  0.00    +0.000 A 
BRANCH  29  30
ATOM     30  C   UNK A   6     -10.372  -1.091  15.785  0.00  0.00    +0.000 C 
BRANCH  30  31
ATOM     31  C   UNK A   6     -11.879  -1.389  15.668  0.00  0.00    +0.000 C 
BRANCH  31  32
ATOM     32  C   UNK A   6     -12.545  -0.190  15.008  0.00  0.00    +0.000 C 
ATOM     33  N   UNK A   4     -13.522   0.405  15.690  0.00  0.00    +0.000 N 
ATOM     34  H   UNK A   4     -13.813   0.001  16.603  0.00  0.00    +0.000 HD
ATOM     35  O   UNK A   6     -12.188   0.167  13.880  0.00  0.00    +0.000 OA
BRANCH  33  36
ATOM     36  C   UNK A   4     -14.204   1.611  15.200  0.00  0.00    +0.000 C 
BRANCH  36  37
ATOM     37  C   UNK A   4     -13.558   2.745  15.992  0.00  0.00    +0.000 C 
ATOM     38  O   UNK A   4     -13.719   2.847  17.213  0.00  0.00    +0.000 OA
ATOM     39  N   VAL A   5     -12.770   3.548  15.295  0.00  0.00    +0.000 N 
ATOM     40  H   VAL A   5     -12.699   3.398  14.268  0.00  0.00    +0.000 HD
BRANCH  39  41
ATOM     41  CA  VAL A   5     -11.997   4.630  15.888  0.00  0.00    +0.000 C 
BRANCH  41  42
ATOM     42  C   VAL A   5     -12.731   5.960  15.894  0.00  0.00    +0.000 C 
ATOM     43  N   UNK A   6     -12.826   6.582  17.074  0.00  0.00    +0.000 N 
ATOM     44  H   UNK A   6     -12.395   6.125  17.903  0.00  0.00    +0.000 HD
ATOM     45  O   VAL A   5     -13.179   6.410  14.840  0.00  0.00    +0.000 OA
BRANCH  43  46
ATOM     46  C   UNK A   6     -13.499   7.867  17.271  0.00  0.00    +0.000 C 
BRANCH  46  47
ATOM     47  C   UNK A   6     -12.552   8.819  17.999  0.00  0.00    +0.000 C 
ATOM     48  O   UNK A   6     -11.736   8.376  18.804  0.00  0.00    +0.000 OA
ENDBRANCH  46  47
BRANCH  46  49
ATOM     49  C   UNK A   6     -14.716   7.708  18.188  0.00  0.00    +0.000 C 
BRANCH  49  50
ATOM     50  C   UNK A   6     -15.663   6.632  17.770  0.00  0.00    +0.000 A 
ATOM     51  N   UNK A   6     -15.370   5.294  17.891  0.00  0.00    +0.000 NA
ATOM     52  C   UNK A   6     -16.379   4.582  17.424  0.00  0.00    +0.000 A 
ATOM     53  N   UNK A   6     -17.318   5.414  17.010  0.00  0.00    +0.000 NA
ATOM     54  C   UNK A   6     -16.897   6.702  17.219  0.00  0.00    +0.000 A 
ENDBRANCH  49  50
ENDBRANCH  46  49
ENDBRANCH  43  46
ENDBRANCH  41  42
BRANCH  41  55
ATOM     55  CB  VAL A   5     -10.657   4.770  15.116  0.00  0.00    +0.000 C 
ATOM     56  CG2 VAL A   5      -9.775   5.825  15.748  0.00  0.00    +0.000 C 
ATOM     57  CG1 VAL A   5      -9.945   3.425  15.067  0.00  0.00    +0.000 C 
ENDBRANCH  41  55
ENDBRANCH  39  41
ENDBRANCH  36  37
BRANCH  36  58
ATOM     58  C   UNK A   4     -15.717   1.525  15.437  0.00  0.00    +0.000 C 
BRANCH  58  59
ATOM     59  C   UNK A   4     -16.426   0.427  14.620  0.00  0.00    +0.000 C 
ATOM     60  C   UNK A   4     -17.378  -0.389  15.481  0.00  0.00    +0.000 C 
ATOM     61  C   UNK A   4     -17.199   1.054  13.457  0.00  0.00    +0.000 C 
ENDBRANCH  58  59
ENDBRANCH  36  58
ENDBRANCH  33  36
ENDBRANCH  31  32
BRANCH  31  62
ATOM     62  N   UNK A   6     -12.114  -2.589  14.886  0.00  0.00    +0.000 N 
ATOM     63  C   LEU A   2     -12.735  -3.649  15.387  0.00  0.00    +0.000 C 
ATOM     64  O   LEU A   2     -13.114  -3.718  16.563  0.00  0.00    +0.000 OA
ATOM     65  H   UNK A   6     -11.785  -2.619  13.900  0.00  0.00    +0.000 HD
BRANCH  63  66
ATOM     66  CA  LEU A   2     -12.943  -4.826  14.438  0.00  0.00    +0.000 C 
BRANCH  66  67
ATOM     67  N   LEU A   2     -12.556  -6.067  15.088  0.00  0.00    +0.000 N 
ATOM     68  H   LEU A   2     -13.246  -6.534  15.711  0.00  0.00    +0.000 HD
ATOM     69  C   GLU A   1     -11.369  -6.634  14.927  0.00  0.00    +0.000 C 
ATOM     70  O   GLU A   1     -10.530  -6.220  14.135  0.00  0.00    +0.000 OA
BRANCH  69  71
ATOM     71  CA  GLU A   1     -11.142  -7.917  15.723  0.00  0.00    +0.000 C 
BRANCH  71  72
ATOM     72  N   GLU A   1     -10.650  -8.974  14.869  0.00  0.00    +0.000 NA
ATOM     73  H   GLU A   1     -10.022  -8.733  14.076  0.00  0.00    +0.000 HD
ENDBRANCH  71  72
BRANCH  71  74
ATOM     74  CB  GLU A   1     -10.183  -7.680  16.895  0.00  0.00    +0.000 C 
BRANCH  74  75
ATOM     75  CG  GLU A   1     -10.736  -6.737  17.974  0.00  0.00    +0.000 C 
BRANCH  75  76
ATOM     76  CD  GLU A   1      -9.835  -6.642  19.202  0.00  0.00    +0.000 C 
ATOM     77  OE2 GLU A   1      -9.713  -5.543  19.763  0.00  0.00    +0.000 OA
ATOM     78  OE1 GLU A   1      -9.262  -7.673  19.619  0.00  0.00    +0.000 OA
ENDBRANCH  75  76
ENDBRANCH  74  75
ENDBRANCH  71  74
ENDBRANCH  69  71
ENDBRANCH  66  67
BRANCH  66  79
ATOM     79  CB  LEU A   2     -14.417  -4.911  14.052  0.00  0.00    +0.000 C 
BRANCH  79  80
ATOM     80  CG  LEU A   2     -15.160  -3.639  13.676  0.00  0.00    +0.000 C 
ATOM     81  CD2 LEU A   2     -16.595  -4.037  13.435  0.00  0.00    +0.000 C 
ATOM     82  CD1 LEU A   2     -14.571  -2.996  12.437  0.00  0.00    +0.000 C 
ENDBRANCH  79  80
ENDBRANCH  66  79
ENDBRANCH  63  66
ENDBRANCH  31  62
ENDBRANCH  30  31
ENDBRANCH  29  30
ENDBRANCH  14  25
BRANCH   1  84
ATOM     83  C   UNK A   3     -11.799   0.518  10.365  0.00  0.00    +0.000 C 
ATOM     84  N   UNK A   4     -11.238  -0.484  11.038  0.00  0.00    +0.000 N 
ATOM     85  H   UNK A   4     -11.454  -0.582  12.051  0.00  0.00    +0.000 HD
ATOM     86  O   UNK A   3     -11.537   0.767   9.174  0.00  0.00    +0.000 OA
BRANCH  83  87
ATOM     87  C   UNK A   3     -12.712   1.445  11.169  0.00  0.00    +0.000 C 
BRANCH  87  90
ATOM     88  C   LEU A   2     -12.574   3.884  11.258  0.00  0.00    +0.000 C 
ATOM     89  O   LEU A   2     -12.730   3.924  12.473  0.00  0.00    +0.000 OA
ATOM     90  N   UNK A   3     -12.676   2.764  10.545  0.00  0.00    +0.000 N 
ATOM     91  H   UNK A   3     -12.732   2.831   9.509  0.00  0.00    +0.000 HD
BRANCH  88  92
ATOM     92  CA  LEU A   2     -12.409   5.173  10.472  0.00  0.00    +0.000 C 
BRANCH  92  94
ATOM     93  C   GLU A   1     -12.893   7.569  10.766  0.00  0.00    +0.000 C 
ATOM     94  N   LEU A   2     -12.684   6.363  11.294  0.00  0.00    +0.000 N 
ATOM     95  H   LEU A   2     -12.717   6.259  12.328  0.00  0.00    +0.000 HD
ATOM     96  O   GLU A   1     -12.886   7.768   9.550  0.00  0.00    +0.000 OA
BRANCH  93  97
ATOM     97  CA  GLU A   1     -13.209   8.721  11.745  0.00  0.00    +0.000 C 
BRANCH  97  98
ATOM     98  CB  GLU A   1     -11.923   9.438  12.257  0.00  0.00    +0.000 C 
ATOM     99  CG2 GLU A   1     -11.189   8.598  13.289  0.00  0.00    +0.000 C 
BRANCH  98 100
ATOM    100  CG1 GLU A   1     -11.006   9.753  11.069  0.00  0.00    +0.000 C 
ATOM    101  CD1 GLU A   1      -9.827  10.617  11.414  0.00  0.00    +0.000 C 
ENDBRANCH  98 100
ENDBRANCH  97  98
BRANCH  97 102
ATOM    102  N   GLU A   1     -14.058   8.285  12.842  0.00  0.00    +0.000 NA
ATOM    103  H   GLU A   1     -13.682   7.643  13.569  0.00  0.00    +0.000 HD
ENDBRANCH  97 102
ENDBRANCH  93  97
ENDBRANCH  92  94
BRANCH  92 104
ATOM    104  CB  LEU A   2     -10.978   5.206   9.911  0.00  0.00    +0.000 C 
BRANCH 104 105
ATOM    105  CG  LEU A   2      -9.873   5.394  10.963  0.00  0.00    +0.000 C 
BRANCH 105 106
ATOM    106  CD  LEU A   2      -9.108   4.117  11.311  0.00  0.00    +0.000 C 
ATOM    107  NE2 LEU A   2      -7.854   4.280  11.712  0.00  0.00    +0.000 N 
ATOM    108 HE21 LEU A   2      -7.280   3.453  11.972  0.00  0.00    +0.000 HD
ATOM    109 HE22 LEU A   2      -7.445   5.235  11.766  0.00  0.00    +0.000 HD
ATOM    110  OE1 LEU A   2      -9.635   3.005  11.231  0.00  0.00    +0.000 OA
ENDBRANCH 105 106
ENDBRANCH 104 105
ENDBRANCH  92 104
ENDBRANCH  88  92
ENDBRANCH  87  90
BRANCH  87 111
ATOM    111  C   UNK A   3     -14.139   0.874  11.394  0.00  0.00    +0.000 C 
BRANCH 111 112
ATOM    112  C   UNK A   3     -14.864   0.429  10.152  0.00  0.00    +0.000 A 
ATOM    113  C   UNK A   3     -16.003   1.112   9.728  0.00  0.00    +0.000 A 
ATOM    114  C   UNK A   3     -16.753   0.644   8.669  0.00  0.00    +0.000 A 
ATOM    115  C   UNK A   3     -16.372  -0.521   8.003  0.00  0.00    +0.000 A 
ATOM    116  C   UNK A   3     -15.234  -1.212   8.404  0.00  0.00    +0.000 A 
ATOM    117  C   UNK A   3     -14.490  -0.733   9.474  0.00  0.00    +0.000 A 
ENDBRANCH 111 112
ENDBRANCH  87 111
ENDBRANCH  83  87
ENDBRANCH   1  84
BRANCH   9 118
ATOM    118  C   UNK A   6      -7.393  -8.702  12.564  0.00  0.00    +0.000 C 
ATOM    119  O   UNK A   6      -8.497  -9.062  13.019  0.00  0.00    +0.000 OA
ENDBRANCH   9 118
BRANCH   5 120
ATOM    120  CB  VAL A   5     -10.491  -6.158  10.577  0.00  0.00    +0.000 C 
BRANCH 120 121
ATOM    121  CG  VAL A   5     -11.920  -5.835  10.196  0.00  0.00    +0.000 A 
ATOM    122  CD2 VAL A   5     -12.980  -6.466  10.836  0.00  0.00    +0.000 A 
ATOM    123  CE2 VAL A   5     -14.291  -6.234  10.436  0.00  0.00    +0.000 A 
ATOM    124  CZ  VAL A   5     -14.560  -5.363   9.383  0.00  0.00    +0.000 A 
ATOM    125  CE1 VAL A   5     -13.522  -4.727   8.740  0.00  0.00    +0.000 A 
ATOM    126  CD1 VAL A   5     -12.199  -4.963   9.149  0.00  0.00    +0.000 A 
ENDBRANCH 120 121
ENDBRANCH   5 120
TORSDOF 42
REMARK  Name = ../refined-set-2016/1g45/1g45_pocket.pdb
REMARK  155 active torsions:
REMARK  status: ('A' for Active; 'I' for Inactive)
REMARK    1  A    between atoms: _1  and  _3
REMARK    2  A    between atoms: _3  and  _4
REMARK    3  A    between atoms: _3  and  _6
REMARK    4  A    between atoms: _6  and  _7
REMARK    5  A    between atoms: _12  and  _14
REMARK    6  A    between atoms: _14  and  _15
REMARK    7  A    between atoms: _14  and  _17
REMARK    8  A    between atoms: _17  and  _18
REMARK    9  A    between atoms: _28  and  _30
REMARK   10  A    between atoms: _30  and  _31
REMARK   11  A    between atoms: _30  and  _33
REMARK   12  A    between atoms: _33  and  _34
REMARK   13  A    between atoms: _39  and  _40
REMARK   14  A    between atoms: _42  and  _44
REMARK   15  A    between atoms: _44  and  _45
REMARK   16  A    between atoms: _44  and  _47
REMARK   17  A    between atoms: _47  and  _48
REMARK   18  A    between atoms: _51  and  _52
REMARK   19  A    between atoms: _57  and  _59
REMARK   20  A    between atoms: _59  and  _60
REMARK   21  A    between atoms: _59  and  _62
REMARK   22  A    between atoms: _62  and  _63
REMARK   23  A    between atoms: _68  and  _70
REMARK   24  A    between atoms: _70  and  _71
REMARK   25  A    between atoms: _74  and  _76
REMARK   26  A    between atoms: _76  and  _77
REMARK   27  A    between atoms: _76  and  _79
REMARK   28  A    between atoms: _79  and  _80
REMARK   29  A    between atoms: _85  and  _87
REMARK   30  A    between atoms: _87  and  _88
REMARK   31  A    between atoms: _87  and  _90
REMARK   32  A    between atoms: _90  and  _91
REMARK   33  A    between atoms: _94  and  _96
REMARK   34  A    between atoms: _96  and  _97
REMARK   35  A    between atoms: _96  and  _99
REMARK   36  A    between atoms: _99  and  _100
REMARK   37  A    between atoms: _100  and  _101
REMARK   38  A    between atoms: _106  and  _108
REMARK   39  A    between atoms: _108  and  _109
REMARK   40  A    between atoms: _108  and  _111
REMARK   41  A    between atoms: _111  and  _112
REMARK   42  A    between atoms: _118  and  _120
REMARK   43  A    between atoms: _131  and  _134
REMARK   44  A    between atoms: _134  and  _135
REMARK   45  A    between atoms: _143  and  _144
REMARK   46  A    between atoms: _152  and  _154
REMARK   47  A    between atoms: _154  and  _155
REMARK   48  A    between atoms: _154  and  _157
REMARK   49  A    between atoms: _157  and  _158
REMARK   50  A    between atoms: _158  and  _159
REMARK   51  A    between atoms: _162  and  _164
REMARK   52  A    between atoms: _164  and  _165
REMARK   53  A    between atoms: _164  and  _167
REMARK   54  A    between atoms: _167  and  _168
REMARK   55  A    between atoms: _173  and  _175
REMARK   56  A    between atoms: _175  and  _176
REMARK   57  A    between atoms: _175  and  _178
REMARK   58  A    between atoms: _178  and  _179
REMARK   59  A    between atoms: _179  and  _180
REMARK   60  A    between atoms: _183  and  _185
REMARK   61  A    between atoms: _185  and  _186
REMARK   62  A    between atoms: _185  and  _188
REMARK   63  A    between atoms: _188  and  _189
REMARK   64  A    between atoms: _192  and  _194
REMARK   65  A    between atoms: _194  and  _195
REMARK   66  A    between atoms: _194  and  _197
REMARK   67  A    between atoms: _197  and  _198
REMARK   68  A    between atoms: _199  and  ZN_433
REMARK   69  A    between atoms: _203  and  _205
REMARK   70  A    between atoms: _205  and  _206
REMARK   71  A    between atoms: _205  and  _208
REMARK   72  A    between atoms: _208  and  _209
REMARK   73  A    between atoms: _212  and  _214
REMARK   74  A    between atoms: _214  and  _215
REMARK   75  A    between atoms: _214  and  _217
REMARK   76  A    between atoms: _220  and  _222
REMARK   77  A    between atoms: _222  and  _223
REMARK   78  A    between atoms: _222  and  _225
REMARK   79  A    between atoms: _225  and  _226
REMARK   80  A    between atoms: _231  and  _233
REMARK   81  A    between atoms: _233  and  _234
REMARK   82  A    between atoms: _233  and  _236
REMARK   83  A    between atoms: _239  and  _241
REMARK   84  A    between atoms: _241  and  _242
REMARK   85  A    between atoms: _244  and  _246
REMARK   86  A    between atoms: _246  and  _247
REMARK   87  A    between atoms: _250  and  _252
REMARK   88  A    between atoms: _252  and  _253
REMARK   89  A    between atoms: _252  and  _255
REMARK   90  A    between atoms: _258  and  _260
REMARK   91  A    between atoms: _260  and  _261
REMARK   92  A    between atoms: _260  and  _263
REMARK   93  A    between atoms: _263  and  _264
REMARK   94  A    between atoms: _264  and  _265
REMARK   95  A    between atoms: _270  and  _272
REMARK   96  A    between atoms: _272  and  _273
REMARK   97  A    between atoms: _272  and  _275
REMARK   98  A    between atoms: _275  and  _276
REMARK   99  A    between atoms: _279  and  _281
REMARK  100  A    between atoms: _281  and  _282
REMARK  101  A    between atoms: _285  and  _287
REMARK  102  A    between atoms: _287  and  _288
REMARK  103  A    between atoms: _287  and  _290
REMARK  104  A    between atoms: _293  and  _295
REMARK  105  A    between atoms: _295  and  _296
REMARK  106  A    between atoms: _295  and  _298
REMARK  107  A    between atoms: _298  and  _299
REMARK  108  A    between atoms: _302  and  _304
REMARK  109  A    between atoms: _304  and  _305
REMARK  110  A    between atoms: _307  and  _309
REMARK  111  A    between atoms: _309  and  _310
REMARK  112  A    between atoms: _309  and  _312
REMARK  113  A    between atoms: _312  and  _313
REMARK  114  A    between atoms: _315  and  _317
REMARK  115  A    between atoms: _317  and  _318
REMARK  116  A    between atoms: _317  and  _320
REMARK  117  A    between atoms: _320  and  _321
REMARK  118  A    between atoms: _324  and  _326
REMARK  119  A    between atoms: _326  and  _327
REMARK  120  A    between atoms: _326  and  _329
REMARK  121  A    between atoms: _329  and  _330
REMARK  122  A    between atoms: _333  and  _335
REMARK  123  A    between atoms: _335  and  _336
REMARK  124  A    between atoms: _335  and  _338
REMARK  125  A    between atoms: _338  and  _339
REMARK  126  A    between atoms: _343  and  _344
REMARK  127  A    between atoms: _350  and  _351
REMARK  128  A    between atoms: _356  and  _358
REMARK  129  A    between atoms: _358  and  _359
REMARK  130  A    between atoms: _358  and  _361
REMARK  131  A    between atoms: _361  and  _362
REMARK  132  A    between atoms: _365  and  _367
REMARK  133  A    between atoms: _367  and  _368
REMARK  134  A    between atoms: _367  and  _370
REMARK  135  A    between atoms: _370  and  _371
REMARK  136  A    between atoms: _374  and  _376
REMARK  137  A    between atoms: _376  and  _377
REMARK  138  A    between atoms: _376  and  _379
REMARK  139  A    between atoms: _381  and  _383
REMARK  140  A    between atoms: _383  and  _384
REMARK  141  A    between atoms: _383  and  _386
REMARK  142  A    between atoms: _389  and  _391
REMARK  143  A    between atoms: _391  and  _392
REMARK  144  A    between atoms: _391  and  _394
REMARK  145  A    between atoms: _394  and  _395
REMARK  146  A    between atoms: _405  and  _407
REMARK  147  A    between atoms: _407  and  _408
REMARK  148  A    between atoms: _407  and  _410
REMARK  149  A    between atoms: _410  and  _411
REMARK  150  A    between atoms: _416  and  _418
REMARK  151  A    between atoms: _418  and  _419
REMARK  152  A    between atoms: _418  and  _421
REMARK  153  A    between atoms: _421  and  _422
REMARK  154  A    between atoms: _422  and  _423
REMARK  155  A    between atoms: _423  and  _424
REMARK                            x       y       z     vdW  Elec       q    Type
REMARK                         _______ _______ _______ _____ _____    ______ ____
ROOT
ATOM      1  C   GLU A   1      -5.986  -8.543  21.152  0.00  0.00    +0.238 C 
ATOM      2  O   GLU A   1      -5.147  -8.937  21.955  0.00  0.00    -0.274 OA
ATOM      3  N   HIS A   2      -7.231  -8.260  21.512  0.00  0.00    -0.298 N 
ATOM      4  H   HIS A   2      -7.894  -7.867  20.813  0.00  0.00    +0.150 HD
ENDROOT
BRANCH   1   5
ATOM      5  CA  GLU A   1      -5.640  -8.320  19.683  0.00  0.00    +0.145 C 
BRANCH   5   6
ATOM      6  N   GLU A   1      -6.712  -8.953  18.925  0.00  0.00    -0.238 NA
ATOM      7  H   GLU A   1      -7.588  -8.420  18.753  0.00  0.00    +0.142 HD
ENDBRANCH   5   6
BRANCH   5   8
ATOM      8  CB  GLU A   1      -5.572  -6.831  19.339  0.00  0.00    +0.038 C 
BRANCH   8   9
ATOM      9  CG  GLU A   1      -5.313  -6.582  17.851  0.00  0.00    +0.116 C 
BRANCH   9  10
ATOM     10  CD  GLU A   1      -4.581  -5.291  17.602  0.00  0.00    +0.365 C 
ATOM     11  OE2 GLU A   1      -5.174  -4.207  17.745  0.00  0.00    -0.246 OA
ATOM     12  OE1 GLU A   1      -3.395  -5.366  17.254  0.00  0.00    -0.246 OA
ENDBRANCH   9  10
ENDBRANCH   8   9
ENDBRANCH   5   8
ENDBRANCH   1   5
BRANCH   3  13
ATOM     13  CA  HIS A   2      -7.676  -8.495  22.875  0.00  0.00    +0.143 C 
BRANCH  13  14
ATOM     14  C   HIS A   2      -8.051  -9.954  22.936  0.00  0.00    +0.227 C 
ATOM     15  O   HIS A   2      -8.378 -10.561  21.900  0.00  0.00    -0.286 OA
ENDBRANCH  13  14
BRANCH  13  16
ATOM     16  CB  HIS A   2      -8.895  -7.642  23.204  0.00  0.00    +0.075 C 
BRANCH  16  17
ATOM     17  CG  HIS A   2      -8.563  -6.204  23.411  0.00  0.00    +0.082 A 
ATOM     18  CD2 HIS A   2      -8.111  -5.549  24.504  0.00  0.00    +0.115 A 
ATOM     19  NE2 HIS A   2      -7.881  -4.251  24.131  0.00  0.00    -0.221 NA
ATOM     20  CE1 HIS A   2      -8.183  -4.108  22.852  0.00  0.00    +0.199 A 
ATOM     21  ND1 HIS A   2      -8.600  -5.273  22.394  0.00  0.00    -0.227 NA
ENDBRANCH  16  17
ENDBRANCH  13  16
ENDBRANCH   3  13
TORSDOF 9
REMARK  Name = ../refined-set-2016/1g45/1g45_pocket.pdb
REMARK  155 active torsions:
REMARK  status: ('A' for Active; 'I' for Inactive)
REMARK    1  A    between atoms: _1  and  _3
REMARK    2  A    between atoms: _3  and  _4
REMARK    3  A    between atoms: _3  and  _6
REMARK    4  A    between atoms: _6  and  _7
REMARK    5  A    between atoms: _12  and  _14
REMARK    6  A    between atoms: _14  and  _15
REMARK    7  A    between atoms: _14  and  _17
REMARK    8  A    between atoms: _17  and  _18
REMARK    9  A    between atoms: _28  and  _30
REMARK   10  A    between atoms: _30  and  _31
REMARK   11  A    between atoms: _30  and  _33
REMARK   12  A    between atoms: _33  and  _34
REMARK   13  A    between atoms: _39  and  _40
REMARK   14  A    between atoms: _42  and  _44
REMARK   15  A    between atoms: _44  and  _45
REMARK   16  A    between atoms: _44  and  _47
REMARK   17  A    between atoms: _47  and  _48
REMARK   18  A    between atoms: _51  and  _52
REMARK   19  A    between atoms: _57  and  _59
REMARK   20  A    between atoms: _59  and  _60
REMARK   21  A    between atoms: _59  and  _62
REMARK   22  A    between atoms: _62  and  _63
REMARK   23  A    between atoms: _68  and  _70
REMARK   24  A    between atoms: _70  and  _71
REMARK   25  A    between atoms: _74  and  _76
REMARK   26  A    between atoms: _76  and  _77
REMARK   27  A    between atoms: _76  and  _79
REMARK   28  A    between atoms: _79  and  _80
REMARK   29  A    between atoms: _85  and  _87
REMARK   30  A    between atoms: _87  and  _88
REMARK   31  A    between atoms: _87  and  _90
REMARK   32  A    between atoms: _90  and  _91
REMARK   33  A    between atoms: _94  and  _96
REMARK   34  A    between atoms: _96  and  _97
REMARK   35  A    between atoms: _96  and  _99
REMARK   36  A    between atoms: _99  and  _100
REMARK   37  A    between atoms: _100  and  _101
REMARK   38  A    between atoms: _106  and  _108
REMARK   39  A    between atoms: _108  and  _109
REMARK   40  A    between atoms: _108  and  _111
REMARK   41  A    between atoms: _111  and  _112
REMARK   42  A    between atoms: _118  and  _120
REMARK   43  A    between atoms: _131  and  _134
REMARK   44  A    between atoms: _134  and  _135
REMARK   45  A    between atoms: _143  and  _144
REMARK   46  A    between atoms: _152  and  _154
REMARK   47  A    between atoms: _154  and  _155
REMARK   48  A    between atoms: _154  and  _157
REMARK   49  A    between atoms: _157  and  _158
REMARK   50  A    between atoms: _158  and  _159
REMARK   51  A    between atoms: _162  and  _164
REMARK   52  A    between atoms: _164  and  _165
REMARK   53  A    between atoms: _164  and  _167
REMARK   54  A    between atoms: _167  and  _168
REMARK   55  A    between atoms: _173  and  _175
REMARK   56  A    between atoms: _175  and  _176
REMARK   57  A    between atoms: _175  and  _178
REMARK   58  A    between atoms: _178  and  _179
REMARK   59  A    between atoms: _179  and  _180
REMARK   60  A    between atoms: _183  and  _185
REMARK   61  A    between atoms: _185  and  _186
REMARK   62  A    between atoms: _185  and  _188
REMARK   63  A    between atoms: _188  and  _189
REMARK   64  A    between atoms: _192  and  _194
REMARK   65  A    between atoms: _194  and  _195
REMARK   66  A    between atoms: _194  and  _197
REMARK   67  A    between atoms: _197  and  _198
REMARK   68  A    between atoms: _199  and  ZN_433
REMARK   69  A    between atoms: _203  and  _205
REMARK   70  A    between atoms: _205  and  _206
REMARK   71  A    between atoms: _205  and  _208
REMARK   72  A    between atoms: _208  and  _209
REMARK   73  A    between atoms: _212  and  _214
REMARK   74  A    between atoms: _214  and  _215
REMARK   75  A    between atoms: _214  and  _217
REMARK   76  A    between atoms: _220  and  _222
REMARK   77  A    between atoms: _222  and  _223
REMARK   78  A    between atoms: _222  and  _225
REMARK   79  A    between atoms: _225  and  _226
REMARK   80  A    between atoms: _231  and  _233
REMARK   81  A    between atoms: _233  and  _234
REMARK   82  A    between atoms: _233  and  _236
REMARK   83  A    between atoms: _239  and  _241
REMARK   84  A    between atoms: _241  and  _242
REMARK   85  A    between atoms: _244  and  _246
REMARK   86  A    between atoms: _246  and  _247
REMARK   87  A    between atoms: _250  and  _252
REMARK   88  A    between atoms: _252  and  _253
REMARK   89  A    between atoms: _252  and  _255
REMARK   90  A    between atoms: _258  and  _260
REMARK   91  A    between atoms: _260  and  _261
REMARK   92  A    between atoms: _260  and  _263
REMARK   93  A    between atoms: _263  and  _264
REMARK   94  A    between atoms: _264  and  _265
REMARK   95  A    between atoms: _270  and  _272
REMARK   96  A    between atoms: _272  and  _273
REMARK   97  A    between atoms: _272  and  _275
REMARK   98  A    between atoms: _275  and  _276
REMARK   99  A    between atoms: _279  and  _281
REMARK  100  A    between atoms: _281  and  _282
REMARK  101  A    between atoms: _285  and  _287
REMARK  102  A    between atoms: _287  and  _288
REMARK  103  A    between atoms: _287  and  _290
REMARK  104  A    between atoms: _293  and  _295
REMARK  105  A    between atoms: _295  and  _296
REMARK  106  A    between atoms: _295  and  _298
REMARK  107  A    between atoms: _298  and  _299
REMARK  108  A    between atoms: _302  and  _304
REMARK  109  A    between atoms: _304  and  _305
REMARK  110  A    between atoms: _307  and  _309
REMARK  111  A    between atoms: _309  and  _310
REMARK  112  A    between atoms: _309  and  _312
REMARK  113  A    between atoms: _312  and  _313
REMARK  114  A    between atoms: _315  and  _317
REMARK  115  A    between atoms: _317  and  _318
REMARK  116  A    between atoms: _317  and  _320
REMARK  117  A    between atoms: _320  and  _321
REMARK  118  A    between atoms: _324  and  _326
REMARK  119  A    between atoms: _326  and  _327
REMARK  120  A    between atoms: _326  and  _329
REMARK  121  A    between atoms: _329  and  _330
REMARK  122  A    between atoms: _333  and  _335
REMARK  123  A    between atoms: _335  and  _336
REMARK  124  A    between atoms: _335  and  _338
REMARK  125  A    between atoms: _338  and  _339
REMARK  126  A    between atoms: _343  and  _344
REMARK  127  A    between atoms: _350  and  _351
REMARK  128  A    between atoms: _356  and  _358
REMARK  129  A    between atoms: _358  and  _359
REMARK  130  A    between atoms: _358  and  _361
REMARK  131  A    between atoms: _361  and  _362
REMARK  132  A    between atoms: _365  and  _367
REMARK  133  A    between atoms: _367  and  _368
REMARK  134  A    between atoms: _367  and  _370
REMARK  135  A    between atoms: _370  and  _371
REMARK  136  A    between atoms: _374  and  _376
REMARK  137  A    between atoms: _376  and  _377
REMARK  138  A    between atoms: _376  and  _379
REMARK  139  A    between atoms: _381  and  _383
REMARK  140  A    between atoms: _383  and  _384
REMARK  141  A    between atoms: _383  and  _386
REMARK  142  A    between atoms: _389  and  _391
REMARK  143  A    between atoms: _391  and  _392
REMARK  144  A    between atoms: _391  and  _394
REMARK  145  A    between atoms: _394  and  _395
REMARK  146  A    between atoms: _405  and  _407
REMARK  147  A    between atoms: _407  and  _408
REMARK  148  A    between atoms: _407  and  _410
REMARK  149  A    between atoms: _410  and  _411
REMARK  150  A    between atoms: _416  and  _418
REMARK  151  A    between atoms: _418  and  _419
REMARK  152  A    between atoms: _418  and  _421
REMARK  153  A    between atoms: _421  and  _422
REMARK  154  A    between atoms: _422  and  _423
REMARK  155  A    between atoms: _423  and  _424
REMARK                            x       y       z     vdW  Elec       q    Type
REMARK                         _______ _______ _______ _____ _____    ______ ____
ROOT
ATOM      1  C   VAL A   1      -6.184  14.295  15.840  0.00  0.00    +0.238 C 
ATOM      2  O   VAL A   1      -5.707  13.656  16.776  0.00  0.00    -0.274 OA
ATOM      3  N   GLY A   2      -5.512  15.209  15.150  0.00  0.00    -0.297 N 
ATOM      4  H   GLY A   2      -5.991  15.720  14.381  0.00  0.00    +0.150 HD
ENDROOT
BRANCH   1   5
ATOM      5  CA  VAL A   1      -7.617  14.089  15.427  0.00  0.00    +0.145 C 
BRANCH   5   6
ATOM      6  CB  VAL A   1      -7.648  12.954  14.400  0.00  0.00    +0.025 C 
ATOM      7  CG2 VAL A   1      -7.335  11.618  15.093  0.00  0.00    +0.002 C 
ATOM      8  CG1 VAL A   1      -8.980  12.886  13.739  0.00  0.00    +0.002 C 
ENDBRANCH   5   6
BRANCH   5   9
ATOM      9  N   VAL A   1      -8.250  15.324  14.953  0.00  0.00    -0.238 NA
ATOM     10  H   VAL A   1      -8.661  15.352  13.998  0.00  0.00    +0.142 HD
ENDBRANCH   5   9
ENDBRANCH   1   5
BRANCH   3  11
ATOM     11  CA  GLY A   2      -4.122  15.510  15.446  0.00  0.00    +0.163 C 
BRANCH  11  12
ATOM     12  C   GLY A   2      -3.916  15.958  16.880  0.00  0.00    +0.229 C 
ATOM     13  O   GLY A   2      -2.946  15.554  17.517  0.00  0.00    -0.286 OA
ENDBRANCH  11  12
ENDBRANCH   3  11
TORSDOF 5
REMARK  Name = ../refined-set-2016/1g45/1g45_pocket.pdb
REMARK  155 active torsions:
REMARK  status: ('A' for Active; 'I' for Inactive)
REMARK    1  A    between atoms: _1  and  _3
REMARK    2  A    between atoms: _3  and  _4
REMARK    3  A    between atoms: _3  and  _6
REMARK    4  A    between atoms: _6  and  _7
REMARK    5  A    between atoms: _12  and  _14
REMARK    6  A    between atoms: _14  and  _15
REMARK    7  A    between atoms: _14  and  _17
REMARK    8  A    between atoms: _17  and  _18
REMARK    9  A    between atoms: _28  and  _30
REMARK   10  A    between atoms: _30  and  _31
REMARK   11  A    between atoms: _30  and  _33
REMARK   12  A    between atoms: _33  and  _34
REMARK   13  A    between atoms: _39  and  _40
REMARK   14  A    between atoms: _42  and  _44
REMARK   15  A    between atoms: _44  and  _45
REMARK   16  A    between atoms: _44  and  _47
REMARK   17  A    between atoms: _47  and  _48
REMARK   18  A    between atoms: _51  and  _52
REMARK   19  A    between atoms: _57  and  _59
REMARK   20  A    between atoms: _59  and  _60
REMARK   21  A    between atoms: _59  and  _62
REMARK   22  A    between atoms: _62  and  _63
REMARK   23  A    between atoms: _68  and  _70
REMARK   24  A    between atoms: _70  and  _71
REMARK   25  A    between atoms: _74  and  _76
REMARK   26  A    between atoms: _76  and  _77
REMARK   27  A    between atoms: _76  and  _79
REMARK   28  A    between atoms: _79  and  _80
REMARK   29  A    between atoms: _85  and  _87
REMARK   30  A    between atoms: _87  and  _88
REMARK   31  A    between atoms: _87  and  _90
REMARK   32  A    between atoms: _90  and  _91
REMARK   33  A    between atoms: _94  and  _96
REMARK   34  A    between atoms: _96  and  _97
REMARK   35  A    between atoms: _96  and  _99
REMARK   36  A    between atoms: _99  and  _100
REMARK   37  A    between atoms: _100  and  _101
REMARK   38  A    between atoms: _106  and  _108
REMARK   39  A    between atoms: _108  and  _109
REMARK   40  A    between atoms: _108  and  _111
REMARK   41  A    between atoms: _111  and  _112
REMARK   42  A    between atoms: _118  and  _120
REMARK   43  A    between atoms: _131  and  _134
REMARK   44  A    between atoms: _134  and  _135
REMARK   45  A    between atoms: _143  and  _144
REMARK   46  A    between atoms: _152  and  _154
REMARK   47  A    between atoms: _154  and  _155
REMARK   48  A    between atoms: _154  and  _157
REMARK   49  A    between atoms: _157  and  _158
REMARK   50  A    between atoms: _158  and  _159
REMARK   51  A    between atoms: _162  and  _164
REMARK   52  A    between atoms: _164  and  _165
REMARK   53  A    between atoms: _164  and  _167
REMARK   54  A    between atoms: _167  and  _168
REMARK   55  A    between atoms: _173  and  _175
REMARK   56  A    between atoms: _175  and  _176
REMARK   57  A    between atoms: _175  and  _178
REMARK   58  A    between atoms: _178  and  _179
REMARK   59  A    between atoms: _179  and  _180
REMARK   60  A    between atoms: _183  and  _185
REMARK   61  A    between atoms: _185  and  _186
REMARK   62  A    between atoms: _185  and  _188
REMARK   63  A    between atoms: _188  and  _189
REMARK   64  A    between atoms: _192  and  _194
REMARK   65  A    between atoms: _194  and  _195
REMARK   66  A    between atoms: _194  and  _197
REMARK   67  A    between atoms: _197  and  _198
REMARK   68  A    between atoms: _199  and  ZN_433
REMARK   69  A    between atoms: _203  and  _205
REMARK   70  A    between atoms: _205  and  _206
REMARK   71  A    between atoms: _205  and  _208
REMARK   72  A    between atoms: _208  and  _209
REMARK   73  A    between atoms: _212  and  _214
REMARK   74  A    between atoms: _214  and  _215
REMARK   75  A    between atoms: _214  and  _217
REMARK   76  A    between atoms: _220  and  _222
REMARK   77  A    between atoms: _222  and  _223
REMARK   78  A    between atoms: _222  and  _225
REMARK   79  A    between atoms: _225  and  _226
REMARK   80  A    between atoms: _231  and  _233
REMARK   81  A    between atoms: _233  and  _234
REMARK   82  A    between atoms: _233  and  _236
REMARK   83  A    between atoms: _239  and  _241
REMARK   84  A    between atoms: _241  and  _242
REMARK   85  A    between atoms: _244  and  _246
REMARK   86  A    between atoms: _246  and  _247
REMARK   87  A    between atoms: _250  and  _252
REMARK   88  A    between atoms: _252  and  _253
REMARK   89  A    between atoms: _252  and  _255
REMARK   90  A    between atoms: _258  and  _260
REMARK   91  A    between atoms: _260  and  _261
REMARK   92  A    between atoms: _260  and  _263
REMARK   93  A    between atoms: _263  and  _264
REMARK   94  A    between atoms: _264  and  _265
REMARK   95  A    between atoms: _270  and  _272
REMARK   96  A    between atoms: _272  and  _273
REMARK   97  A    between atoms: _272  and  _275
REMARK   98  A    between atoms: _275  and  _276
REMARK   99  A    between atoms: _279  and  _281
REMARK  100  A    between atoms: _281  and  _282
REMARK  101  A    between atoms: _285  and  _287
REMARK  102  A    between atoms: _287  and  _288
REMARK  103  A    between atoms: _287  and  _290
REMARK  104  A    between atoms: _293  and  _295
REMARK  105  A    between atoms: _295  and  _296
REMARK  106  A    between atoms: _295  and  _298
REMARK  107  A    between atoms: _298  and  _299
REMARK  108  A    between atoms: _302  and  _304
REMARK  109  A    between atoms: _304  and  _305
REMARK  110  A    between atoms: _307  and  _309
REMARK  111  A    between atoms: _309  and  _310
REMARK  112  A    between atoms: _309  and  _312
REMARK  113  A    between atoms: _312  and  _313
REMARK  114  A    between atoms: _315  and  _317
REMARK  115  A    between atoms: _317  and  _318
REMARK  116  A    between atoms: _317  and  _320
REMARK  117  A    between atoms: _320  and  _321
REMARK  118  A    between atoms: _324  and  _326
REMARK  119  A    between atoms: _326  and  _327
REMARK  120  A    between atoms: _326  and  _329
REMARK  121  A    between atoms: _329  and  _330
REMARK  122  A    between atoms: _333  and  _335
REMARK  123  A    between atoms: _335  and  _336
REMARK  124  A    between atoms: _335  and  _338
REMARK  125  A    between atoms: _338  and  _339
REMARK  126  A    between atoms: _343  and  _344
REMARK  127  A    between atoms: _350  and  _351
REMARK  128  A    between atoms: _356  and  _358
REMARK  129  A    between atoms: _358  and  _359
REMARK  130  A    between atoms: _358  and  _361
REMARK  131  A    between atoms: _361  and  _362
REMARK  132  A    between atoms: _365  and  _367
REMARK  133  A    between atoms: _367  and  _368
REMARK  134  A    between atoms: _367  and  _370
REMARK  135  A    between atoms: _370  and  _371
REMARK  136  A    between atoms: _374  and  _376
REMARK  137  A    between atoms: _376  and  _377
REMARK  138  A    between atoms: _376  and  _379
REMARK  139  A    between atoms: _381  and  _383
REMARK  140  A    between atoms: _383  and  _384
REMARK  141  A    between atoms: _383  and  _386
REMARK  142  A    between atoms: _389  and  _391
REMARK  143  A    between atoms: _391  and  _392
REMARK  144  A    between atoms: _391  and  _394
REMARK  145  A    between atoms: _394  and  _395
REMARK  146  A    between atoms: _405  and  _407
REMARK  147  A    between atoms: _407  and  _408
REMARK  148  A    between atoms: _407  and  _410
REMARK  149  A    between atoms: _410  and  _411
REMARK  150  A    between atoms: _416  and  _418
REMARK  151  A    between atoms: _418  and  _419
REMARK  152  A    between atoms: _418  and  _421
REMARK  153  A    between atoms: _421  and  _422
REMARK  154  A    between atoms: _422  and  _423
REMARK  155  A    between atoms: _423  and  _424
REMARK                            x       y       z     vdW  Elec       q    Type
REMARK                         _______ _______ _______ _____ _____    ______ ____
ROOT
ATOM      1  C   VAL A   2      -2.903  12.304  20.979  0.00  0.00    +0.241 C 
ATOM      2  O   VAL A   2      -2.232  11.442  21.552  0.00  0.00    -0.273 OA
ATOM      3  N   GLN A   3      -2.822  13.598  21.271  0.00  0.00    -0.298 N 
ATOM      4  H   GLN A   3      -3.441  14.266  20.769  0.00  0.00    +0.150 HD
ENDROOT
BRANCH   1   5
ATOM      5  CA  VAL A   2      -3.933  11.908  19.928  0.00  0.00    +0.148 C 
BRANCH   5   8
ATOM      6  C   ALA A   1      -5.763  13.366  20.585  0.00  0.00    +0.238 C 
ATOM      7  O   ALA A   1      -5.724  12.927  21.739  0.00  0.00    -0.274 OA
ATOM      8  N   VAL A   2      -4.922  12.949  19.639  0.00  0.00    -0.297 N 
ATOM      9  H   VAL A   2      -4.968  13.366  18.688  0.00  0.00    +0.150 HD
BRANCH   6  10
ATOM     10  CA  ALA A   1      -6.786  14.441  20.203  0.00  0.00    +0.145 C 
ATOM     11  CB  ALA A   1      -8.008  13.803  19.526  0.00  0.00    +0.028 C 
BRANCH  10  12
ATOM     12  N   ALA A   1      -6.232  15.490  19.355  0.00  0.00    -0.238 NA
ATOM     13  H   ALA A   1      -6.675  15.689  18.436  0.00  0.00    +0.142 HD
ENDBRANCH  10  12
ENDBRANCH   6  10
ENDBRANCH   5   8
BRANCH   5  14
ATOM     14  CB  VAL A   2      -3.224  11.383  18.652  0.00  0.00    +0.027 C 
ATOM     15  CG2 VAL A   2      -2.394  12.485  17.978  0.00  0.00    +0.002 C 
ATOM     16  CG1 VAL A   2      -4.254  10.804  17.702  0.00  0.00    +0.002 C 
ENDBRANCH   5  14
ENDBRANCH   1   5
BRANCH   3  17
ATOM     17  CA  GLN A   3      -1.893  14.113  22.274  0.00  0.00    +0.137 C 
BRANCH  17  18
ATOM     18  C   GLN A   3      -2.536  14.189  23.668  0.00  0.00    +0.227 C 
ATOM     19  O   GLN A   3      -1.909  14.655  24.616  0.00  0.00    -0.286 OA
ENDBRANCH  17  18
BRANCH  17  20
ATOM     20  CB  GLN A   3      -1.418  15.515  21.861  0.00  0.00    +0.037 C 
BRANCH  20  21
ATOM     21  CG  GLN A   3      -0.623  15.558  20.568  0.00  0.00    +0.087 C 
BRANCH  21  22
ATOM     22  CD  GLN A   3      -0.360  16.974  20.095  0.00  0.00    +0.219 C 
ATOM     23  OE1 GLN A   3       0.218  17.795  20.814  0.00  0.00    -0.275 OA
ATOM     24  NE2 GLN A   3      -0.780  17.268  18.877  0.00  0.00    -0.329 N 
ATOM     25 HE21 GLN A   3      -0.628  18.221  18.490  0.00  0.00    +0.145 HD
ATOM     26 HE22 GLN A   3      -1.263  16.546  18.305  0.00  0.00    +0.145 HD
ENDBRANCH  21  22
ENDBRANCH  20  21
ENDBRANCH  17  20
ENDBRANCH   3  17
TORSDOF 10
REMARK  Name = ../refined-set-2016/1g45/1g45_pocket.pdb
REMARK  155 active torsions:
REMARK  status: ('A' for Active; 'I' for Inactive)
REMARK    1  A    between atoms: _1  and  _3
REMARK    2  A    between atoms: _3  and  _4
REMARK    3  A    between atoms: _3  and  _6
REMARK    4  A    between atoms: _6  and  _7
REMARK    5  A    between atoms: _12  and  _14
REMARK    6  A    between atoms: _14  and  _15
REMARK    7  A    between atoms: _14  and  _17
REMARK    8  A    between atoms: _17  and  _18
REMARK    9  A    between atoms: _28  and  _30
REMARK   10  A    between atoms: _30  and  _31
REMARK   11  A    between atoms: _30  and  _33
REMARK   12  A    between atoms: _33  and  _34
REMARK   13  A    between atoms: _39  and  _40
REMARK   14  A    between atoms: _42  and  _44
REMARK   15  A    between atoms: _44  and  _45
REMARK   16  A    between atoms: _44  and  _47
REMARK   17  A    between atoms: _47  and  _48
REMARK   18  A    between atoms: _51  and  _52
REMARK   19  A    between atoms: _57  and  _59
REMARK   20  A    between atoms: _59  and  _60
REMARK   21  A    between atoms: _59  and  _62
REMARK   22  A    between atoms: _62  and  _63
REMARK   23  A    between atoms: _68  and  _70
REMARK   24  A    between atoms: _70  and  _71
REMARK   25  A    between atoms: _74  and  _76
REMARK   26  A    between atoms: _76  and  _77
REMARK   27  A    between atoms: _76  and  _79
REMARK   28  A    between atoms: _79  and  _80
REMARK   29  A    between atoms: _85  and  _87
REMARK   30  A    between atoms: _87  and  _88
REMARK   31  A    between atoms: _87  and  _90
REMARK   32  A    between atoms: _90  and  _91
REMARK   33  A    between atoms: _94  and  _96
REMARK   34  A    between atoms: _96  and  _97
REMARK   35  A    between atoms: _96  and  _99
REMARK   36  A    between atoms: _99  and  _100
REMARK   37  A    between atoms: _100  and  _101
REMARK   38  A    between atoms: _106  and  _108
REMARK   39  A    between atoms: _108  and  _109
REMARK   40  A    between atoms: _108  and  _111
REMARK   41  A    between atoms: _111  and  _112
REMARK   42  A    between atoms: _118  and  _120
REMARK   43  A    between atoms: _131  and  _134
REMARK   44  A    between atoms: _134  and  _135
REMARK   45  A    between atoms: _143  and  _144
REMARK   46  A    between atoms: _152  and  _154
REMARK   47  A    between atoms: _154  and  _155
REMARK   48  A    between atoms: _154  and  _157
REMARK   49  A    between atoms: _157  and  _158
REMARK   50  A    between atoms: _158  and  _159
REMARK   51  A    between atoms: _162  and  _164
REMARK   52  A    between atoms: _164  and  _165
REMARK   53  A    between atoms: _164  and  _167
REMARK   54  A    between atoms: _167  and  _168
REMARK   55  A    between atoms: _173  and  _175
REMARK   56  A    between atoms: _175  and  _176
REMARK   57  A    between atoms: _175  and  _178
REMARK   58  A    between atoms: _178  and  _179
REMARK   59  A    between atoms: _179  and  _180
REMARK   60  A    between atoms: _183  and  _185
REMARK   61  A    between atoms: _185  and  _186
REMARK   62  A    between atoms: _185  and  _188
REMARK   63  A    between atoms: _188  and  _189
REMARK   64  A    between atoms: _192  and  _194
REMARK   65  A    between atoms: _194  and  _195
REMARK   66  A    between atoms: _194  and  _197
REMARK   67  A    between atoms: _197  and  _198
REMARK   68  A    between atoms: _199  and  ZN_433
REMARK   69  A    between atoms: _203  and  _205
REMARK   70  A    between atoms: _205  and  _206
REMARK   71  A    between atoms: _205  and  _208
REMARK   72  A    between atoms: _208  and  _209
REMARK   73  A    between atoms: _212  and  _214
REMARK   74  A    between atoms: _214  and  _215
REMARK   75  A    between atoms: _214  and  _217
REMARK   76  A    between atoms: _220  and  _222
REMARK   77  A    between atoms: _222  and  _223
REMARK   78  A    between atoms: _222  and  _225
REMARK   79  A    between atoms: _225  and  _226
REMARK   80  A    between atoms: _231  and  _233
REMARK   81  A    between atoms: _233  and  _234
REMARK   82  A    between atoms: _233  and  _236
REMARK   83  A    between atoms: _239  and  _241
REMARK   84  A    between atoms: _241  and  _242
REMARK   85  A    between atoms: _244  and  _246
REMARK   86  A    between atoms: _246  and  _247
REMARK   87  A    between atoms: _250  and  _252
REMARK   88  A    between atoms: _252  and  _253
REMARK   89  A    between atoms: _252  and  _255
REMARK   90  A    between atoms: _258  and  _260
REMARK   91  A    between atoms: _260  and  _261
REMARK   92  A    between atoms: _260  and  _263
REMARK   93  A    between atoms: _263  and  _264
REMARK   94  A    between atoms: _264  and  _265
REMARK   95  A    between atoms: _270  and  _272
REMARK   96  A    between atoms: _272  and  _273
REMARK   97  A    between atoms: _272  and  _275
REMARK   98  A    between atoms: _275  and  _276
REMARK   99  A    between atoms: _279  and  _281
REMARK  100  A    between atoms: _281  and  _282
REMARK  101  A    between atoms: _285  and  _287
REMARK  102  A    between atoms: _287  and  _288
REMARK  103  A    between atoms: _287  and  _290
REMARK  104  A    between atoms: _293  and  _295
REMARK  105  A    between atoms: _295  and  _296
REMARK  106  A    between atoms: _295  and  _298
REMARK  107  A    between atoms: _298  and  _299
REMARK  108  A    between atoms: _302  and  _304
REMARK  109  A    between atoms: _304  and  _305
REMARK  110  A    between atoms: _307  and  _309
REMARK  111  A    between atoms: _309  and  _310
REMARK  112  A    between atoms: _309  and  _312
REMARK  113  A    between atoms: _312  and  _313
REMARK  114  A    between atoms: _315  and  _317
REMARK  115  A    between atoms: _317  and  _318
REMARK  116  A    between atoms: _317  and  _320
REMARK  117  A    between atoms: _320  and  _321
REMARK  118  A    between atoms: _324  and  _326
REMARK  119  A    between atoms: _326  and  _327
REMARK  120  A    between atoms: _326  and  _329
REMARK  121  A    between atoms: _329  and  _330
REMARK  122  A    between atoms: _333  and  _335
REMARK  123  A    between atoms: _335  and  _336
REMARK  124  A    between atoms: _335  and  _338
REMARK  125  A    between atoms: _338  and  _339
REMARK  126  A    between atoms: _343  and  _344
REMARK  127  A    between atoms: _350  and  _351
REMARK  128  A    between atoms: _356  and  _358
REMARK  129  A    between atoms: _358  and  _359
REMARK  130  A    between atoms: _358  and  _361
REMARK  131  A    between atoms: _361  and  _362
REMARK  132  A    between atoms: _365  and  _367
REMARK  133  A    between atoms: _367  and  _368
REMARK  134  A    between atoms: _367  and  _370
REMARK  135  A    between atoms: _370  and  _371
REMARK  136  A    between atoms: _374  and  _376
REMARK  137  A    between atoms: _376  and  _377
REMARK  138  A    between atoms: _376  and  _379
REMARK  139  A    between atoms: _381  and  _383
REMARK  140  A    between atoms: _383  and  _384
REMARK  141  A    between atoms: _383  and  _386
REMARK  142  A    between atoms: _389  and  _391
REMARK  143  A    between atoms: _391  and  _392
REMARK  144  A    between atoms: _391  and  _394
REMARK  145  A    between atoms: _394  and  _395
REMARK  146  A    between atoms: _405  and  _407
REMARK  147  A    between atoms: _407  and  _408
REMARK  148  A    between atoms: _407  and  _410
REMARK  149  A    between atoms: _410  and  _411
REMARK  150  A    between atoms: _416  and  _418
REMARK  151  A    between atoms: _418  and  _419
REMARK  152  A    between atoms: _418  and  _421
REMARK  153  A    between atoms: _421  and  _422
REMARK  154  A    between atoms: _422  and  _423
REMARK  155  A    between atoms: _423  and  _424
REMARK                            x       y       z     vdW  Elec       q    Type
REMARK                         _______ _______ _______ _____ _____    ______ ____
ROOT
ATOM      1  CA  VAL A   3     -12.052   2.779  20.108  0.00  0.00    +0.149 C 
ENDROOT
BRANCH   1   3
ATOM      2  C   ALA A   2     -12.396   5.057  20.855  0.00  0.00    +0.241 C 
ATOM      3  N   VAL A   3     -11.989   3.823  21.126  0.00  0.00    -0.297 N 
ATOM      4  H   VAL A   3     -11.622   3.598  22.073  0.00  0.00    +0.150 HD
ATOM      5  O   ALA A   2     -12.735   5.403  19.722  0.00  0.00    -0.273 OA
BRANCH   2   6
ATOM      6  CA  ALA A   2     -12.313   6.084  21.980  0.00  0.00    +0.149 C 
ATOM      7  CB  ALA A   2     -13.684   6.652  22.276  0.00  0.00    +0.031 C 
BRANCH   6  10
ATOM      8  C   LEU A   1     -10.445   7.658  22.168  0.00  0.00    +0.238 C 
ATOM      9  O   LEU A   1     -10.228   7.379  23.341  0.00  0.00    -0.274 OA
ATOM     10  N   ALA A   2     -11.426   7.114  21.455  0.00  0.00    -0.297 N 
ATOM     11  H   ALA A   2     -11.567   7.439  20.477  0.00  0.00    +0.150 HD
BRANCH   8  12
ATOM     12  CA  LEU A   1      -9.572   8.656  21.425  0.00  0.00    +0.145 C 
BRANCH  12  13
ATOM     13  N   LEU A   1      -8.913   9.641  22.264  0.00  0.00    -0.238 NA
ATOM     14  H   LEU A   1      -8.286   9.329  23.033  0.00  0.00    +0.142 HD
ENDBRANCH  12  13
BRANCH  12  15
ATOM     15  CB  LEU A   1      -8.542   7.858  20.608  0.00  0.00    +0.026 C 
BRANCH  15  16
ATOM     16  CG  LEU A   1      -7.638   8.550  19.592  0.00  0.00    +0.002 C 
ATOM     17  CD2 LEU A   1      -8.399   9.541  18.751  0.00  0.00    +0.000 C 
ATOM     18  CD1 LEU A   1      -7.024   7.485  18.700  0.00  0.00    +0.000 C 
ENDBRANCH  15  16
ENDBRANCH  12  15
ENDBRANCH   8  12
ENDBRANCH   6  10
ENDBRANCH   2   6
ENDBRANCH   1   3
BRANCH   1  19
ATOM     19  C   VAL A   3     -12.999   1.679  20.561  0.00  0.00    +0.241 C 
ATOM     20  O   VAL A   3     -12.841   1.129  21.655  0.00  0.00    -0.273 OA
ATOM     21  N   LEU A   4     -13.987   1.384  19.722  0.00  0.00    -0.297 N 
ATOM     22  H   LEU A   4     -14.064   1.915  18.831  0.00  0.00    +0.150 HD
BRANCH  21  23
ATOM     23  CA  LEU A   4     -14.966   0.342  20.007  0.00  0.00    +0.149 C 
BRANCH  23  24
ATOM     24  C   LEU A   4     -14.452  -0.938  19.380  0.00  0.00    +0.241 C 
ATOM     25  N   GLY A   5     -14.169  -1.934  20.210  0.00  0.00    -0.296 N 
ATOM     26  H   GLY A   5     -14.313  -1.797  21.231  0.00  0.00    +0.150 HD
ATOM     27  O   LEU A   4     -14.285  -1.002  18.168  0.00  0.00    -0.273 OA
BRANCH  25  28
ATOM     28  CA  GLY A   5     -13.665  -3.205  19.735  0.00  0.00    +0.163 C 
BRANCH  28  29
ATOM     29  C   GLY A   5     -14.738  -4.269  19.710  0.00  0.00    +0.229 C 
ATOM     30  O   GLY A   5     -15.482  -4.448  20.686  0.00  0.00    -0.286 OA
ENDBRANCH  28  29
ENDBRANCH  25  28
ENDBRANCH  23  24
BRANCH  23  31
ATOM     31  CB  LEU A   4     -16.308   0.702  19.383  0.00  0.00    +0.029 C 
BRANCH  31  32
ATOM     32  CG  LEU A   4     -17.511  -0.041  19.952  0.00  0.00    +0.002 C 
ATOM     33  CD2 LEU A   4     -17.864   0.572  21.289  0.00  0.00    +0.000 C 
ATOM     34  CD1 LEU A   4     -18.693   0.061  19.009  0.00  0.00    +0.000 C 
ENDBRANCH  31  32
ENDBRANCH  23  31
ENDBRANCH  21  23
ENDBRANCH   1  19
BRANCH   1  35
ATOM     35  CB  VAL A   3     -10.667   2.140  19.804  0.00  0.00    +0.027 C 
ATOM     36  CG2 VAL A   3      -9.674   3.204  19.396  0.00  0.00    +0.002 C 
ATOM     37  CG1 VAL A   3     -10.805   1.098  18.697  0.00  0.00    +0.002 C 
ENDBRANCH   1  35
TORSDOF 15
REMARK  Name = ../refined-set-2016/1g45/1g45_pocket.pdb
REMARK  155 active torsions:
REMARK  status: ('A' for Active; 'I' for Inactive)
REMARK    1  A    between atoms: _1  and  _3
REMARK    2  A    between atoms: _3  and  _4
REMARK    3  A    between atoms: _3  and  _6
REMARK    4  A    between atoms: _6  and  _7
REMARK    5  A    between atoms: _12  and  _14
REMARK    6  A    between atoms: _14  and  _15
REMARK    7  A    between atoms: _14  and  _17
REMARK    8  A    between atoms: _17  and  _18
REMARK    9  A    between atoms: _28  and  _30
REMARK   10  A    between atoms: _30  and  _31
REMARK   11  A    between atoms: _30  and  _33
REMARK   12  A    between atoms: _33  and  _34
REMARK   13  A    between atoms: _39  and  _40
REMARK   14  A    between atoms: _42  and  _44
REMARK   15  A    between atoms: _44  and  _45
REMARK   16  A    between atoms: _44  and  _47
REMARK   17  A    between atoms: _47  and  _48
REMARK   18  A    between atoms: _51  and  _52
REMARK   19  A    between atoms: _57  and  _59
REMARK   20  A    between atoms: _59  and  _60
REMARK   21  A    between atoms: _59  and  _62
REMARK   22  A    between atoms: _62  and  _63
REMARK   23  A    between atoms: _68  and  _70
REMARK   24  A    between atoms: _70  and  _71
REMARK   25  A    between atoms: _74  and  _76
REMARK   26  A    between atoms: _76  and  _77
REMARK   27  A    between atoms: _76  and  _79
REMARK   28  A    between atoms: _79  and  _80
REMARK   29  A    between atoms: _85  and  _87
REMARK   30  A    between atoms: _87  and  _88
REMARK   31  A    between atoms: _87  and  _90
REMARK   32  A    between atoms: _90  and  _91
REMARK   33  A    between atoms: _94  and  _96
REMARK   34  A    between atoms: _96  and  _97
REMARK   35  A    between atoms: _96  and  _99
REMARK   36  A    between atoms: _99  and  _100
REMARK   37  A    between atoms: _100  and  _101
REMARK   38  A    between atoms: _106  and  _108
REMARK   39  A    between atoms: _108  and  _109
REMARK   40  A    between atoms: _108  and  _111
REMARK   41  A    between atoms: _111  and  _112
REMARK   42  A    between atoms: _118  and  _120
REMARK   43  A    between atoms: _131  and  _134
REMARK   44  A    between atoms: _134  and  _135
REMARK   45  A    between atoms: _143  and  _144
REMARK   46  A    between atoms: _152  and  _154
REMARK   47  A    between atoms: _154  and  _155
REMARK   48  A    between atoms: _154  and  _157
REMARK   49  A    between atoms: _157  and  _158
REMARK   50  A    between atoms: _158  and  _159
REMARK   51  A    between atoms: _162  and  _164
REMARK   52  A    between atoms: _164  and  _165
REMARK   53  A    between atoms: _164  and  _167
REMARK   54  A    between atoms: _167  and  _168
REMARK   55  A    between atoms: _173  and  _175
REMARK   56  A    between atoms: _175  and  _176
REMARK   57  A    between atoms: _175  and  _178
REMARK   58  A    between atoms: _178  and  _179
REMARK   59  A    between atoms: _179  and  _180
REMARK   60  A    between atoms: _183  and  _185
REMARK   61  A    between atoms: _185  and  _186
REMARK   62  A    between atoms: _185  and  _188
REMARK   63  A    between atoms: _188  and  _189
REMARK   64  A    between atoms: _192  and  _194
REMARK   65  A    between atoms: _194  and  _195
REMARK   66  A    between atoms: _194  and  _197
REMARK   67  A    between atoms: _197  and  _198
REMARK   68  A    between atoms: _199  and  ZN_433
REMARK   69  A    between atoms: _203  and  _205
REMARK   70  A    between atoms: _205  and  _206
REMARK   71  A    between atoms: _205  and  _208
REMARK   72  A    between atoms: _208  and  _209
REMARK   73  A    between atoms: _212  and  _214
REMARK   74  A    between atoms: _214  and  _215
REMARK   75  A    between atoms: _214  and  _217
REMARK   76  A    between atoms: _220  and  _222
REMARK   77  A    between atoms: _222  and  _223
REMARK   78  A    between atoms: _222  and  _225
REMARK   79  A    between atoms: _225  and  _226
REMARK   80  A    between atoms: _231  and  _233
REMARK   81  A    between atoms: _233  and  _234
REMARK   82  A    between atoms: _233  and  _236
REMARK   83  A    between atoms: _239  and  _241
REMARK   84  A    between atoms: _241  and  _242
REMARK   85  A    between atoms: _244  and  _246
REMARK   86  A    between atoms: _246  and  _247
REMARK   87  A    between atoms: _250  and  _252
REMARK   88  A    between atoms: _252  and  _253
REMARK   89  A    between atoms: _252  and  _255
REMARK   90  A    between atoms: _258  and  _260
REMARK   91  A    between atoms: _260  and  _261
REMARK   92  A    between atoms: _260  and  _263
REMARK   93  A    between atoms: _263  and  _264
REMARK   94  A    between atoms: _264  and  _265
REMARK   95  A    between atoms: _270  and  _272
REMARK   96  A    between atoms: _272  and  _273
REMARK   97  A    between atoms: _272  and  _275
REMARK   98  A    between atoms: _275  and  _276
REMARK   99  A    between atoms: _279  and  _281
REMARK  100  A    between atoms: _281  and  _282
REMARK  101  A    between atoms: _285  and  _287
REMARK  102  A    between atoms: _287  and  _288
REMARK  103  A    between atoms: _287  and  _290
REMARK  104  A    between atoms: _293  and  _295
REMARK  105  A    between atoms: _295  and  _296
REMARK  106  A    between atoms: _295  and  _298
REMARK  107  A    between atoms: _298  and  _299
REMARK  108  A    between atoms: _302  and  _304
REMARK  109  A    between atoms: _304  and  _305
REMARK  110  A    between atoms: _307  and  _309
REMARK  111  A    between atoms: _309  and  _310
REMARK  112  A    between atoms: _309  and  _312
REMARK  113  A    between atoms: _312  and  _313
REMARK  114  A    between atoms: _315  and  _317
REMARK  115  A    between atoms: _317  and  _318
REMARK  116  A    between atoms: _317  and  _320
REMARK  117  A    between atoms: _320  and  _321
REMARK  118  A    between atoms: _324  and  _326
REMARK  119  A    between atoms: _326  and  _327
REMARK  120  A    between atoms: _326  and  _329
REMARK  121  A    between atoms: _329  and  _330
REMARK  122  A    between atoms: _333  and  _335
REMARK  123  A    between atoms: _335  and  _336
REMARK  124  A    between atoms: _335  and  _338
REMARK  125  A    between atoms: _338  and  _339
REMARK  126  A    between atoms: _343  and  _344
REMARK  127  A    between atoms: _350  and  _351
REMARK  128  A    between atoms: _356  and  _358
REMARK  129  A    between atoms: _358  and  _359
REMARK  130  A    between atoms: _358  and  _361
REMARK  131  A    between atoms: _361  and  _362
REMARK  132  A    between atoms: _365  and  _367
REMARK  133  A    between atoms: _367  and  _368
REMARK  134  A    between atoms: _367  and  _370
REMARK  135  A    between atoms: _370  and  _371
REMARK  136  A    between atoms: _374  and  _376
REMARK  137  A    between atoms: _376  and  _377
REMARK  138  A    between atoms: _376  and  _379
REMARK  139  A    between atoms: _381  and  _383
REMARK  140  A    between atoms: _383  and  _384
REMARK  141  A    between atoms: _383  and  _386
REMARK  142  A    between atoms: _389  and  _391
REMARK  143  A    between atoms: _391  and  _392
REMARK  144  A    between atoms: _391  and  _394
REMARK  145  A    between atoms: _394  and  _395
REMARK  146  A    between atoms: _405  and  _407
REMARK  147  A    between atoms: _407  and  _408
REMARK  148  A    between atoms: _407  and  _410
REMARK  149  A    between atoms: _410  and  _411
REMARK  150  A    between atoms: _416  and  _418
REMARK  151  A    between atoms: _418  and  _419
REMARK  152  A    between atoms: _418  and  _421
REMARK  153  A    between atoms: _421  and  _422
REMARK  154  A    between atoms: _422  and  _423
REMARK  155  A    between atoms: _423  and  _424
REMARK                            x       y       z     vdW  Elec       q    Type
REMARK                         _______ _______ _______ _____ _____    ______ ____
ROOT
ATOM      1  C   THR A   4       0.941   1.389  16.516  0.00  0.00    +0.246 C 
ATOM      2  O   THR A   4       0.500   2.291  17.250  0.00  0.00    -0.273 OA
ATOM      3  N   PRO A   5       2.194   1.430  16.023  0.00  0.00    -0.272 N 
ATOM      4  CA  PRO A   5       2.999   2.636  16.233  0.00  0.00    +0.152 C 
ATOM      5  CB  PRO A   5       4.234   2.354  15.382  0.00  0.00    +0.031 C 
ATOM      6  CG  PRO A   5       4.427   0.899  15.590  0.00  0.00    +0.024 C 
ATOM      7  CD  PRO A   5       3.011   0.358  15.424  0.00  0.00    +0.094 C 
ENDROOT
BRANCH   4   8
ATOM      8  C   PRO A   5       2.158   3.776  15.673  0.00  0.00    +0.244 C 
ATOM      9  N   PRO A   6       2.255   4.988  16.249  0.00  0.00    -0.272 N 
ATOM     10  CA  PRO A   6       3.055   5.496  17.369  0.00  0.00    +0.152 C 
ATOM     11  CB  PRO A   6       2.773   7.000  17.335  0.00  0.00    +0.031 C 
ATOM     12  CG  PRO A   6       2.162   7.249  16.016  0.00  0.00    +0.024 C 
ATOM     13  CD  PRO A   6       1.354   6.047  15.763  0.00  0.00    +0.094 C 
ATOM     14  O   PRO A   5       1.423   3.569  14.699  0.00  0.00    -0.273 OA
BRANCH  10  15
ATOM     15  C   PRO A   6       2.789   4.940  18.788  0.00  0.00    +0.241 C 
ATOM     16  O   PRO A   6       3.452   5.365  19.734  0.00  0.00    -0.273 OA
ATOM     17  N   LEU A   7       1.792   4.062  18.940  0.00  0.00    -0.297 N 
ATOM     18  H   LEU A   7       1.228   3.800  18.107  0.00  0.00    +0.150 HD
BRANCH  17  19
ATOM     19  CA  LEU A   7       1.458   3.449  20.241  0.00  0.00    +0.149 C 
BRANCH  19  20
ATOM     20  C   LEU A   7       1.137   4.464  21.351  0.00  0.00    +0.241 C 
ATOM     21  O   LEU A   7       1.385   4.213  22.540  0.00  0.00    -0.273 OA
ATOM     22  N   LEU A   8       0.546   5.588  20.948  0.00  0.00    -0.298 N 
ATOM     23  H   LEU A   8       0.334   5.697  19.936  0.00  0.00    +0.150 HD
BRANCH  22  24
ATOM     24  CA  LEU A   8       0.180   6.675  21.852  0.00  0.00    +0.137 C 
BRANCH  24  25
ATOM     25  C   LEU A   8      -0.870   6.223  22.881  0.00  0.00    +0.227 C 
ATOM     26  O   LEU A   8      -1.815   5.506  22.561  0.00  0.00    -0.286 OA
ENDBRANCH  24  25
BRANCH  24  27
ATOM     27  CB  LEU A   8      -0.304   7.882  21.035  0.00  0.00    +0.028 C 
BRANCH  27  28
ATOM     28  CG  LEU A   8       0.776   8.409  20.064  0.00  0.00    +0.002 C 
ATOM     29  CD2 LEU A   8       1.974   8.982  20.840  0.00  0.00    +0.000 C 
ATOM     30  CD1 LEU A   8       0.211   9.489  19.150  0.00  0.00    +0.000 C 
ENDBRANCH  27  28
ENDBRANCH  24  27
ENDBRANCH  22  24
ENDBRANCH  19  20
BRANCH  19  31
ATOM     31  CB  LEU A   7       2.598   2.540  20.693  0.00  0.00    +0.029 C 
BRANCH  31  32
ATOM     32  CG  LEU A   7       2.963   1.420  19.724  0.00  0.00    +0.002 C 
ATOM     33  CD2 LEU A   7       4.367   0.923  20.029  0.00  0.00    +0.000 C 
ATOM     34  CD1 LEU A   7       1.940   0.296  19.811  0.00  0.00    +0.000 C 
ENDBRANCH  31  32
ENDBRANCH  19  31
ENDBRANCH  17  19
ENDBRANCH  10  15
ENDBRANCH   4   8
BRANCH   1  35
ATOM     35  CA  THR A   4       0.120   0.124  16.268  0.00  0.00    +0.176 C 
BRANCH  35  38
ATOM     36  C   THR A   3      -1.079  -1.029  18.041  0.00  0.00    +0.243 C 
ATOM     37  O   THR A   3      -0.486  -2.085  17.814  0.00  0.00    -0.273 OA
ATOM     38  N   THR A   4      -0.901   0.069  17.309  0.00  0.00    -0.295 N 
ATOM     39  H   THR A   4      -1.500   0.901  17.482  0.00  0.00    +0.150 HD
BRANCH  36  40
ATOM     40  CA  THR A   3      -2.140  -0.961  19.141  0.00  0.00    +0.176 C 
BRANCH  40  43
ATOM     41  C   LEU A   2      -2.393   1.294  19.946  0.00  0.00    +0.241 C 
ATOM     42  O   LEU A   2      -1.392   1.166  20.651  0.00  0.00    -0.273 OA
ATOM     43  N   THR A   3      -2.828   0.318  19.155  0.00  0.00    -0.295 N 
ATOM     44  H   THR A   3      -3.659   0.470  18.548  0.00  0.00    +0.150 HD
BRANCH  41  45
ATOM     45  CA  LEU A   2      -3.139   2.628  19.932  0.00  0.00    +0.149 C 
BRANCH  45  48
ATOM     46  C   SER A   1      -3.569   2.499  22.328  0.00  0.00    +0.241 C 
ATOM     47  O   SER A   1      -4.351   1.553  22.186  0.00  0.00    -0.274 OA
ATOM     48  N   LEU A   2      -2.974   3.111  21.303  0.00  0.00    -0.297 N 
ATOM     49  H   LEU A   2      -2.382   3.947  21.482  0.00  0.00    +0.150 HD
BRANCH  46  50
ATOM     50  CA  SER A   1      -3.243   3.042  23.721  0.00  0.00    +0.174 C 
BRANCH  50  51
ATOM     51  N   SER A   1      -3.956   2.342  24.786  0.00  0.00    -0.236 NA
ATOM     52  H   SER A   1      -4.133   1.321  24.694  0.00  0.00    +0.142 HD
ENDBRANCH  50  51
BRANCH  50  53
ATOM     53  CB  SER A   1      -1.763   2.808  23.952  0.00  0.00    +0.163 C 
BRANCH  53  54
ATOM     54  OG  SER A   1      -1.487   1.432  23.747  0.00  0.00    -0.380 OA
ATOM     55  H   SER A   1      -1.728   1.183  22.820  0.00  0.00    +0.211 HD
ENDBRANCH  53  54
ENDBRANCH  50  53
ENDBRANCH  46  50
ENDBRANCH  45  48
BRANCH  45  56
ATOM     56  CB  LEU A   2      -2.413   3.550  18.954  0.00  0.00    +0.029 C 
BRANCH  56  57
ATOM     57  CG  LEU A   2      -2.744   5.042  18.955  0.00  0.00    +0.002 C 
ATOM     58  CD2 LEU A   2      -4.218   5.267  18.647  0.00  0.00    +0.000 C 
ATOM     59  CD1 LEU A   2      -1.856   5.728  17.924  0.00  0.00    +0.000 C 
ENDBRANCH  56  57
ENDBRANCH  45  56
ENDBRANCH  41  45
ENDBRANCH  40  43
BRANCH  40  60
ATOM     60  CB  THR A   3      -3.115  -2.142  18.997  0.00  0.00    +0.137 C 
ATOM     61  CG2 THR A   3      -4.163  -2.130  20.114  0.00  0.00    +0.034 C 
BRANCH  60  62
ATOM     62  OG1 THR A   3      -3.764  -2.060  17.728  0.00  0.00    -0.382 OA
ATOM     63  HG1 THR A   3      -4.393  -2.818  17.631  0.00  0.00    +0.210 HD
ENDBRANCH  60  62
ENDBRANCH  40  60
ENDBRANCH  36  40
ENDBRANCH  35  38
BRANCH  35  64
ATOM     64  CB  THR A   4      -0.499   0.178  14.853  0.00  0.00    +0.137 C 
ATOM     65  CG2 THR A   4      -1.366  -1.055  14.584  0.00  0.00    +0.034 C 
BRANCH  64  66
ATOM     66  OG1 THR A   4      -1.337   1.331  14.756  0.00  0.00    -0.382 OA
ATOM     67  HG1 THR A   4      -0.796   2.145  14.916  0.00  0.00    +0.210 HD
ENDBRANCH  64  66
ENDBRANCH  35  64
ENDBRANCH   1  35
TORSDOF 26
REMARK  Name = ../refined-set-2016/1g45/1g45_pocket.pdb
REMARK  155 active torsions:
REMARK  status: ('A' for Active; 'I' for Inactive)
REMARK    1  A    between atoms: _1  and  _3
REMARK    2  A    between atoms: _3  and  _4
REMARK    3  A    between atoms: _3  and  _6
REMARK    4  A    between atoms: _6  and  _7
REMARK    5  A    between atoms: _12  and  _14
REMARK    6  A    between atoms: _14  and  _15
REMARK    7  A    between atoms: _14  and  _17
REMARK    8  A    between atoms: _17  and  _18
REMARK    9  A    between atoms: _28  and  _30
REMARK   10  A    between atoms: _30  and  _31
REMARK   11  A    between atoms: _30  and  _33
REMARK   12  A    between atoms: _33  and  _34
REMARK   13  A    between atoms: _39  and  _40
REMARK   14  A    between atoms: _42  and  _44
REMARK   15  A    between atoms: _44  and  _45
REMARK   16  A    between atoms: _44  and  _47
REMARK   17  A    between atoms: _47  and  _48
REMARK   18  A    between atoms: _51  and  _52
REMARK   19  A    between atoms: _57  and  _59
REMARK   20  A    between atoms: _59  and  _60
REMARK   21  A    between atoms: _59  and  _62
REMARK   22  A    between atoms: _62  and  _63
REMARK   23  A    between atoms: _68  and  _70
REMARK   24  A    between atoms: _70  and  _71
REMARK   25  A    between atoms: _74  and  _76
REMARK   26  A    between atoms: _76  and  _77
REMARK   27  A    between atoms: _76  and  _79
REMARK   28  A    between atoms: _79  and  _80
REMARK   29  A    between atoms: _85  and  _87
REMARK   30  A    between atoms: _87  and  _88
REMARK   31  A    between atoms: _87  and  _90
REMARK   32  A    between atoms: _90  and  _91
REMARK   33  A    between atoms: _94  and  _96
REMARK   34  A    between atoms: _96  and  _97
REMARK   35  A    between atoms: _96  and  _99
REMARK   36  A    between atoms: _99  and  _100
REMARK   37  A    between atoms: _100  and  _101
REMARK   38  A    between atoms: _106  and  _108
REMARK   39  A    between atoms: _108  and  _109
REMARK   40  A    between atoms: _108  and  _111
REMARK   41  A    between atoms: _111  and  _112
REMARK   42  A    between atoms: _118  and  _120
REMARK   43  A    between atoms: _131  and  _134
REMARK   44  A    between atoms: _134  and  _135
REMARK   45  A    between atoms: _143  and  _144
REMARK   46  A    between atoms: _152  and  _154
REMARK   47  A    between atoms: _154  and  _155
REMARK   48  A    between atoms: _154  and  _157
REMARK   49  A    between atoms: _157  and  _158
REMARK   50  A    between atoms: _158  and  _159
REMARK   51  A    between atoms: _162  and  _164
REMARK   52  A    between atoms: _164  and  _165
REMARK   53  A    between atoms: _164  and  _167
REMARK   54  A    between atoms: _167  and  _168
REMARK   55  A    between atoms: _173  and  _175
REMARK   56  A    between atoms: _175  and  _176
REMARK   57  A    between atoms: _175  and  _178
REMARK   58  A    between atoms: _178  and  _179
REMARK   59  A    between atoms: _179  and  _180
REMARK   60  A    between atoms: _183  and  _185
REMARK   61  A    between atoms: _185  and  _186
REMARK   62  A    between atoms: _185  and  _188
REMARK   63  A    between atoms: _188  and  _189
REMARK   64  A    between atoms: _192  and  _194
REMARK   65  A    between atoms: _194  and  _195
REMARK   66  A    between atoms: _194  and  _197
REMARK   67  A    between atoms: _197  and  _198
REMARK   68  A    between atoms: _199  and  ZN_433
REMARK   69  A    between atoms: _203  and  _205
REMARK   70  A    between atoms: _205  and  _206
REMARK   71  A    between atoms: _205  and  _208
REMARK   72  A    between atoms: _208  and  _209
REMARK   73  A    between atoms: _212  and  _214
REMARK   74  A    between atoms: _214  and  _215
REMARK   75  A    between atoms: _214  and  _217
REMARK   76  A    between atoms: _220  and  _222
REMARK   77  A    between atoms: _222  and  _223
REMARK   78  A    between atoms: _222  and  _225
REMARK   79  A    between atoms: _225  and  _226
REMARK   80  A    between atoms: _231  and  _233
REMARK   81  A    between atoms: _233  and  _234
REMARK   82  A    between atoms: _233  and  _236
REMARK   83  A    between atoms: _239  and  _241
REMARK   84  A    between atoms: _241  and  _242
REMARK   85  A    between atoms: _244  and  _246
REMARK   86  A    between atoms: _246  and  _247
REMARK   87  A    between atoms: _250  and  _252
REMARK   88  A    between atoms: _252  and  _253
REMARK   89  A    between atoms: _252  and  _255
REMARK   90  A    between atoms: _258  and  _260
REMARK   91  A    between atoms: _260  and  _261
REMARK   92  A    between atoms: _260  and  _263
REMARK   93  A    between atoms: _263  and  _264
REMARK   94  A    between atoms: _264  and  _265
REMARK   95  A    between atoms: _270  and  _272
REMARK   96  A    between atoms: _272  and  _273
REMARK   97  A    between atoms: _272  and  _275
REMARK   98  A    between atoms: _275  and  _276
REMARK   99  A    between atoms: _279  and  _281
REMARK  100  A    between atoms: _281  and  _282
REMARK  101  A    between atoms: _285  and  _287
REMARK  102  A    between atoms: _287  and  _288
REMARK  103  A    between atoms: _287  and  _290
REMARK  104  A    between atoms: _293  and  _295
REMARK  105  A    between atoms: _295  and  _296
REMARK  106  A    between atoms: _295  and  _298
REMARK  107  A    between atoms: _298  and  _299
REMARK  108  A    between atoms: _302  and  _304
REMARK  109  A    between atoms: _304  and  _305
REMARK  110  A    between atoms: _307  and  _309
REMARK  111  A    between atoms: _309  and  _310
REMARK  112  A    between atoms: _309  and  _312
REMARK  113  A    between atoms: _312  and  _313
REMARK  114  A    between atoms: _315  and  _317
REMARK  115  A    between atoms: _317  and  _318
REMARK  116  A    between atoms: _317  and  _320
REMARK  117  A    between atoms: _320  and  _321
REMARK  118  A    between atoms: _324  and  _326
REMARK  119  A    between atoms: _326  and  _327
REMARK  120  A    between atoms: _326  and  _329
REMARK  121  A    between atoms: _329  and  _330
REMARK  122  A    between atoms: _333  and  _335
REMARK  123  A    between atoms: _335  and  _336
REMARK  124  A    between atoms: _335  and  _338
REMARK  125  A    between atoms: _338  and  _339
REMARK  126  A    between atoms: _343  and  _344
REMARK  127  A    between atoms: _350  and  _351
REMARK  128  A    between atoms: _356  and  _358
REMARK  129  A    between atoms: _358  and  _359
REMARK  130  A    between atoms: _358  and  _361
REMARK  131  A    between atoms: _361  and  _362
REMARK  132  A    between atoms: _365  and  _367
REMARK  133  A    between atoms: _367  and  _368
REMARK  134  A    between atoms: _367  and  _370
REMARK  135  A    between atoms: _370  and  _371
REMARK  136  A    between atoms: _374  and  _376
REMARK  137  A    between atoms: _376  and  _377
REMARK  138  A    between atoms: _376  and  _379
REMARK  139  A    between atoms: _381  and  _383
REMARK  140  A    between atoms: _383  and  _384
REMARK  141  A    between atoms: _383  and  _386
REMARK  142  A    between atoms: _389  and  _391
REMARK  143  A    between atoms: _391  and  _392
REMARK  144  A    between atoms: _391  and  _394
REMARK  145  A    between atoms: _394  and  _395
REMARK  146  A    between atoms: _405  and  _407
REMARK  147  A    between atoms: _407  and  _408
REMARK  148  A    between atoms: _407  and  _410
REMARK  149  A    between atoms: _410  and  _411
REMARK  150  A    between atoms: _416  and  _418
REMARK  151  A    between atoms: _418  and  _419
REMARK  152  A    between atoms: _418  and  _421
REMARK  153  A    between atoms: _421  and  _422
REMARK  154  A    between atoms: _422  and  _423
REMARK  155  A    between atoms: _423  and  _424
REMARK                            x       y       z     vdW  Elec       q    Type
REMARK                         _______ _______ _______ _____ _____    ______ ____
ROOT
ATOM      1  C   CYS A   1      -5.970   7.682  24.138  0.00  0.00    +0.239 C 
ATOM      2  N   VAL A   2      -6.069   6.384  24.398  0.00  0.00    -0.298 N 
ATOM      3  H   VAL A   2      -5.251   5.878  24.793  0.00  0.00    +0.150 HD
ATOM      4  O   CYS A   1      -6.937   8.368  23.798  0.00  0.00    -0.274 OA
ENDROOT
BRANCH   1   5
ATOM      5  CA  CYS A   1      -4.597   8.317  24.368  0.00  0.00    +0.156 C 
BRANCH   5   6
ATOM      6  N   CYS A   1      -3.521   7.329  24.372  0.00  0.00    -0.237 NA
ATOM      7  H   CYS A   1      -3.455   6.653  23.584  0.00  0.00    +0.142 HD
ENDBRANCH   5   6
BRANCH   5   8
ATOM      8  CB  CYS A   1      -4.311   9.312  23.254  0.00  0.00    +0.095 C 
ATOM      9  SG  CYS A   1      -4.096   8.498  21.683  0.00  0.00    -0.080 S 
ENDBRANCH   5   8
ENDBRANCH   1   5
BRANCH   2  10
ATOM     10  CA  VAL A   2      -7.301   5.659  24.140  0.00  0.00    +0.137 C 
BRANCH  10  11
ATOM     11  CB  VAL A   2      -7.050   4.482  23.171  0.00  0.00    +0.026 C 
ATOM     12  CG2 VAL A   2      -8.389   3.823  22.781  0.00  0.00    +0.002 C 
ATOM     13  CG1 VAL A   2      -6.289   4.943  21.961  0.00  0.00    +0.002 C 
ENDBRANCH  10  11
BRANCH  10  14
ATOM     14  C   VAL A   2      -8.095   5.064  25.292  0.00  0.00    +0.227 C 
ATOM     15  O   VAL A   2      -7.543   4.406  26.188  0.00  0.00    -0.286 OA
ENDBRANCH  10  14
ENDBRANCH   2  10
TORSDOF 6
REMARK  Name = ../refined-set-2016/1g45/1g45_pocket.pdb
REMARK  155 active torsions:
REMARK  status: ('A' for Active; 'I' for Inactive)
REMARK    1  A    between atoms: _1  and  _3
REMARK    2  A    between atoms: _3  and  _4
REMARK    3  A    between atoms: _3  and  _6
REMARK    4  A    between atoms: _6  and  _7
REMARK    5  A    between atoms: _12  and  _14
REMARK    6  A    between atoms: _14  and  _15
REMARK    7  A    between atoms: _14  and  _17
REMARK    8  A    between atoms: _17  and  _18
REMARK    9  A    between atoms: _28  and  _30
REMARK   10  A    between atoms: _30  and  _31
REMARK   11  A    between atoms: _30  and  _33
REMARK   12  A    between atoms: _33  and  _34
REMARK   13  A    between atoms: _39  and  _40
REMARK   14  A    between atoms: _42  and  _44
REMARK   15  A    between atoms: _44  and  _45
REMARK   16  A    between atoms: _44  and  _47
REMARK   17  A    between atoms: _47  and  _48
REMARK   18  A    between atoms: _51  and  _52
REMARK   19  A    between atoms: _57  and  _59
REMARK   20  A    between atoms: _59  and  _60
REMARK   21  A    between atoms: _59  and  _62
REMARK   22  A    between atoms: _62  and  _63
REMARK   23  A    between atoms: _68  and  _70
REMARK   24  A    between atoms: _70  and  _71
REMARK   25  A    between atoms: _74  and  _76
REMARK   26  A    between atoms: _76  and  _77
REMARK   27  A    between atoms: _76  and  _79
REMARK   28  A    between atoms: _79  and  _80
REMARK   29  A    between atoms: _85  and  _87
REMARK   30  A    between atoms: _87  and  _88
REMARK   31  A    between atoms: _87  and  _90
REMARK   32  A    between atoms: _90  and  _91
REMARK   33  A    between atoms: _94  and  _96
REMARK   34  A    between atoms: _96  and  _97
REMARK   35  A    between atoms: _96  and  _99
REMARK   36  A    between atoms: _99  and  _100
REMARK   37  A    between atoms: _100  and  _101
REMARK   38  A    between atoms: _106  and  _108
REMARK   39  A    between atoms: _108  and  _109
REMARK   40  A    between atoms: _108  and  _111
REMARK   41  A    between atoms: _111  and  _112
REMARK   42  A    between atoms: _118  and  _120
REMARK   43  A    between atoms: _131  and  _134
REMARK   44  A    between atoms: _134  and  _135
REMARK   45  A    between atoms: _143  and  _144
REMARK   46  A    between atoms: _152  and  _154
REMARK   47  A    between atoms: _154  and  _155
REMARK   48  A    between atoms: _154  and  _157
REMARK   49  A    between atoms: _157  and  _158
REMARK   50  A    between atoms: _158  and  _159
REMARK   51  A    between atoms: _162  and  _164
REMARK   52  A    between atoms: _164  and  _165
REMARK   53  A    between atoms: _164  and  _167
REMARK   54  A    between atoms: _167  and  _168
REMARK   55  A    between atoms: _173  and  _175
REMARK   56  A    between atoms: _175  and  _176
REMARK   57  A    between atoms: _175  and  _178
REMARK   58  A    between atoms: _178  and  _179
REMARK   59  A    between atoms: _179  and  _180
REMARK   60  A    between atoms: _183  and  _185
REMARK   61  A    between atoms: _185  and  _186
REMARK   62  A    between atoms: _185  and  _188
REMARK   63  A    between atoms: _188  and  _189
REMARK   64  A    between atoms: _192  and  _194
REMARK   65  A    between atoms: _194  and  _195
REMARK   66  A    between atoms: _194  and  _197
REMARK   67  A    between atoms: _197  and  _198
REMARK   68  A    between atoms: _199  and  ZN_433
REMARK   69  A    between atoms: _203  and  _205
REMARK   70  A    between atoms: _205  and  _206
REMARK   71  A    between atoms: _205  and  _208
REMARK   72  A    between atoms: _208  and  _209
REMARK   73  A    between atoms: _212  and  _214
REMARK   74  A    between atoms: _214  and  _215
REMARK   75  A    between atoms: _214  and  _217
REMARK   76  A    between atoms: _220  and  _222
REMARK   77  A    between atoms: _222  and  _223
REMARK   78  A    between atoms: _222  and  _225
REMARK   79  A    between atoms: _225  and  _226
REMARK   80  A    between atoms: _231  and  _233
REMARK   81  A    between atoms: _233  and  _234
REMARK   82  A    between atoms: _233  and  _236
REMARK   83  A    between atoms: _239  and  _241
REMARK   84  A    between atoms: _241  and  _242
REMARK   85  A    between atoms: _244  and  _246
REMARK   86  A    between atoms: _246  and  _247
REMARK   87  A    between atoms: _250  and  _252
REMARK   88  A    between atoms: _252  and  _253
REMARK   89  A    between atoms: _252  and  _255
REMARK   90  A    between atoms: _258  and  _260
REMARK   91  A    between atoms: _260  and  _261
REMARK   92  A    between atoms: _260  and  _263
REMARK   93  A    between atoms: _263  and  _264
REMARK   94  A    between atoms: _264  and  _265
REMARK   95  A    between atoms: _270  and  _272
REMARK   96  A    between atoms: _272  and  _273
REMARK   97  A    between atoms: _272  and  _275
REMARK   98  A    between atoms: _275  and  _276
REMARK   99  A    between atoms: _279  and  _281
REMARK  100  A    between atoms: _281  and  _282
REMARK  101  A    between atoms: _285  and  _287
REMARK  102  A    between atoms: _287  and  _288
REMARK  103  A    between atoms: _287  and  _290
REMARK  104  A    between atoms: _293  and  _295
REMARK  105  A    between atoms: _295  and  _296
REMARK  106  A    between atoms: _295  and  _298
REMARK  107  A    between atoms: _298  and  _299
REMARK  108  A    between atoms: _302  and  _304
REMARK  109  A    between atoms: _304  and  _305
REMARK  110  A    between atoms: _307  and  _309
REMARK  111  A    between atoms: _309  and  _310
REMARK  112  A    between atoms: _309  and  _312
REMARK  113  A    between atoms: _312  and  _313
REMARK  114  A    between atoms: _315  and  _317
REMARK  115  A    between atoms: _317  and  _318
REMARK  116  A    between atoms: _317  and  _320
REMARK  117  A    between atoms: _320  and  _321
REMARK  118  A    between atoms: _324  and  _326
REMARK  119  A    between atoms: _326  and  _327
REMARK  120  A    between atoms: _326  and  _329
REMARK  121  A    between atoms: _329  and  _330
REMARK  122  A    between atoms: _333  and  _335
REMARK  123  A    between atoms: _335  and  _336
REMARK  124  A    between atoms: _335  and  _338
REMARK  125  A    between atoms: _338  and  _339
REMARK  126  A    between atoms: _343  and  _344
REMARK  127  A    between atoms: _350  and  _351
REMARK  128  A    between atoms: _356  and  _358
REMARK  129  A    between atoms: _358  and  _359
REMARK  130  A    between atoms: _358  and  _361
REMARK  131  A    between atoms: _361  and  _362
REMARK  132  A    between atoms: _365  and  _367
REMARK  133  A    between atoms: _367  and  _368
REMARK  134  A    between atoms: _367  and  _370
REMARK  135  A    between atoms: _370  and  _371
REMARK  136  A    between atoms: _374  and  _376
REMARK  137  A    between atoms: _376  and  _377
REMARK  138  A    between atoms: _376  and  _379
REMARK  139  A    between atoms: _381  and  _383
REMARK  140  A    between atoms: _383  and  _384
REMARK  141  A    between atoms: _383  and  _386
REMARK  142  A    between atoms: _389  and  _391
REMARK  143  A    between atoms: _391  and  _392
REMARK  144  A    between atoms: _391  and  _394
REMARK  145  A    between atoms: _394  and  _395
REMARK  146  A    between atoms: _405  and  _407
REMARK  147  A    between atoms: _407  and  _408
REMARK  148  A    between atoms: _407  and  _410
REMARK  149  A    between atoms: _410  and  _411
REMARK  150  A    between atoms: _416  and  _418
REMARK  151  A    between atoms: _418  and  _419
REMARK  152  A    between atoms: _418  and  _421
REMARK  153  A    between atoms: _421  and  _422
REMARK  154  A    between atoms: _422  and  _423
REMARK  155  A    between atoms: _423  and  _424
REMARK                            x       y       z     vdW  Elec       q    Type
REMARK                         _______ _______ _______ _____ _____    ______ ____
ROOT
ATOM      1  CG  TRP A   1      -8.869   0.131  24.221  0.00  0.00    -0.002 A 
ATOM      2  CD1 TRP A   1      -7.624   0.663  24.397  0.00  0.00    +0.068 A 
ATOM      3  NE1 TRP A   1      -6.900   0.556  23.231  0.00  0.00    -0.352 N 
ATOM      4  HE1 TRP A   1      -5.925   0.889  23.093  0.00  0.00    +0.166 HD
ATOM      5  CE2 TRP A   1      -7.671  -0.060  22.282  0.00  0.00    +0.056 A 
ATOM      6  CZ2 TRP A   1      -7.377  -0.394  20.959  0.00  0.00    +0.017 A 
ATOM      7  CH2 TRP A   1      -8.357  -1.017  20.230  0.00  0.00    +0.001 A 
ATOM      8  CZ3 TRP A   1      -9.610  -1.308  20.789  0.00  0.00    +0.000 A 
ATOM      9  CE3 TRP A   1      -9.902  -0.975  22.099  0.00  0.00    +0.001 A 
ATOM     10  CD2 TRP A   1      -8.920  -0.339  22.870  0.00  0.00    +0.013 A 
ENDROOT
BRANCH   1  11
ATOM     11  CB  TRP A   1      -9.963   0.061  25.222  0.00  0.00    +0.053 C 
BRANCH  11  12
ATOM     12  CA  TRP A   1     -11.007   1.182  25.054  0.00  0.00    +0.137 C 
BRANCH  12  13
ATOM     13  N   TRP A   1     -10.557   2.365  25.744  0.00  0.00    -0.239 NA
ATOM     14  H   TRP A   1      -9.932   2.265  26.569  0.00  0.00    +0.142 HD
ENDBRANCH  12  13
BRANCH  12  15
ATOM     15  C   TRP A   1     -12.380   0.708  25.526  0.00  0.00    +0.224 C 
ATOM     16  O   TRP A   1     -12.639   0.631  26.723  0.00  0.00    -0.287 OA
ENDBRANCH  12  15
ENDBRANCH  11  12
ENDBRANCH   1  11
TORSDOF 4
REMARK  Name = ../refined-set-2016/1g45/1g45_pocket.pdb
REMARK  155 active torsions:
REMARK  status: ('A' for Active; 'I' for Inactive)
REMARK    1  A    between atoms: _1  and  _3
REMARK    2  A    between atoms: _3  and  _4
REMARK    3  A    between atoms: _3  and  _6
REMARK    4  A    between atoms: _6  and  _7
REMARK    5  A    between atoms: _12  and  _14
REMARK    6  A    between atoms: _14  and  _15
REMARK    7  A    between atoms: _14  and  _17
REMARK    8  A    between atoms: _17  and  _18
REMARK    9  A    between atoms: _28  and  _30
REMARK   10  A    between atoms: _30  and  _31
REMARK   11  A    between atoms: _30  and  _33
REMARK   12  A    between atoms: _33  and  _34
REMARK   13  A    between atoms: _39  and  _40
REMARK   14  A    between atoms: _42  and  _44
REMARK   15  A    between atoms: _44  and  _45
REMARK   16  A    between atoms: _44  and  _47
REMARK   17  A    between atoms: _47  and  _48
REMARK   18  A    between atoms: _51  and  _52
REMARK   19  A    between atoms: _57  and  _59
REMARK   20  A    between atoms: _59  and  _60
REMARK   21  A    between atoms: _59  and  _62
REMARK   22  A    between atoms: _62  and  _63
REMARK   23  A    between atoms: _68  and  _70
REMARK   24  A    between atoms: _70  and  _71
REMARK   25  A    between atoms: _74  and  _76
REMARK   26  A    between atoms: _76  and  _77
REMARK   27  A    between atoms: _76  and  _79
REMARK   28  A    between atoms: _79  and  _80
REMARK   29  A    between atoms: _85  and  _87
REMARK   30  A    between atoms: _87  and  _88
REMARK   31  A    between atoms: _87  and  _90
REMARK   32  A    between atoms: _90  and  _91
REMARK   33  A    between atoms: _94  and  _96
REMARK   34  A    between atoms: _96  and  _97
REMARK   35  A    between atoms: _96  and  _99
REMARK   36  A    between atoms: _99  and  _100
REMARK   37  A    between atoms: _100  and  _101
REMARK   38  A    between atoms: _106  and  _108
REMARK   39  A    between atoms: _108  and  _109
REMARK   40  A    between atoms: _108  and  _111
REMARK   41  A    between atoms: _111  and  _112
REMARK   42  A    between atoms: _118  and  _120
REMARK   43  A    between atoms: _131  and  _134
REMARK   44  A    between atoms: _134  and  _135
REMARK   45  A    between atoms: _143  and  _144
REMARK   46  A    between atoms: _152  and  _154
REMARK   47  A    between atoms: _154  and  _155
REMARK   48  A    between atoms: _154  and  _157
REMARK   49  A    between atoms: _157  and  _158
REMARK   50  A    between atoms: _158  and  _159
REMARK   51  A    between atoms: _162  and  _164
REMARK   52  A    between atoms: _164  and  _165
REMARK   53  A    between atoms: _164  and  _167
REMARK   54  A    between atoms: _167  and  _168
REMARK   55  A    between atoms: _173  and  _175
REMARK   56  A    between atoms: _175  and  _176
REMARK   57  A    between atoms: _175  and  _178
REMARK   58  A    between atoms: _178  and  _179
REMARK   59  A    between atoms: _179  and  _180
REMARK   60  A    between atoms: _183  and  _185
REMARK   61  A    between atoms: _185  and  _186
REMARK   62  A    between atoms: _185  and  _188
REMARK   63  A    between atoms: _188  and  _189
REMARK   64  A    between atoms: _192  and  _194
REMARK   65  A    between atoms: _194  and  _195
REMARK   66  A    between atoms: _194  and  _197
REMARK   67  A    between atoms: _197  and  _198
REMARK   68  A    between atoms: _199  and  ZN_433
REMARK   69  A    between atoms: _203  and  _205
REMARK   70  A    between atoms: _205  and  _206
REMARK   71  A    between atoms: _205  and  _208
REMARK   72  A    between atoms: _208  and  _209
REMARK   73  A    between atoms: _212  and  _214
REMARK   74  A    between atoms: _214  and  _215
REMARK   75  A    between atoms: _214  and  _217
REMARK   76  A    between atoms: _220  and  _222
REMARK   77  A    between atoms: _222  and  _223
REMARK   78  A    between atoms: _222  and  _225
REMARK   79  A    between atoms: _225  and  _226
REMARK   80  A    between atoms: _231  and  _233
REMARK   81  A    between atoms: _233  and  _234
REMARK   82  A    between atoms: _233  and  _236
REMARK   83  A    between atoms: _239  and  _241
REMARK   84  A    between atoms: _241  and  _242
REMARK   85  A    between atoms: _244  and  _246
REMARK   86  A    between atoms: _246  and  _247
REMARK   87  A    between atoms: _250  and  _252
REMARK   88  A    between atoms: _252  and  _253
REMARK   89  A    between atoms: _252  and  _255
REMARK   90  A    between atoms: _258  and  _260
REMARK   91  A    between atoms: _260  and  _261
REMARK   92  A    between atoms: _260  and  _263
REMARK   93  A    between atoms: _263  and  _264
REMARK   94  A    between atoms: _264  and  _265
REMARK   95  A    between atoms: _270  and  _272
REMARK   96  A    between atoms: _272  and  _273
REMARK   97  A    between atoms: _272  and  _275
REMARK   98  A    between atoms: _275  and  _276
REMARK   99  A    between atoms: _279  and  _281
REMARK  100  A    between atoms: _281  and  _282
REMARK  101  A    between atoms: _285  and  _287
REMARK  102  A    between atoms: _287  and  _288
REMARK  103  A    between atoms: _287  and  _290
REMARK  104  A    between atoms: _293  and  _295
REMARK  105  A    between atoms: _295  and  _296
REMARK  106  A    between atoms: _295  and  _298
REMARK  107  A    between atoms: _298  and  _299
REMARK  108  A    between atoms: _302  and  _304
REMARK  109  A    between atoms: _304  and  _305
REMARK  110  A    between atoms: _307  and  _309
REMARK  111  A    between atoms: _309  and  _310
REMARK  112  A    between atoms: _309  and  _312
REMARK  113  A    between atoms: _312  and  _313
REMARK  114  A    between atoms: _315  and  _317
REMARK  115  A    between atoms: _317  and  _318
REMARK  116  A    between atoms: _317  and  _320
REMARK  117  A    between atoms: _320  and  _321
REMARK  118  A    between atoms: _324  and  _326
REMARK  119  A    between atoms: _326  and  _327
REMARK  120  A    between atoms: _326  and  _329
REMARK  121  A    between atoms: _329  and  _330
REMARK  122  A    between atoms: _333  and  _335
REMARK  123  A    between atoms: _335  and  _336
REMARK  124  A    between atoms: _335  and  _338
REMARK  125  A    between atoms: _338  and  _339
REMARK  126  A    between atoms: _343  and  _344
REMARK  127  A    between atoms: _350  and  _351
REMARK  128  A    between atoms: _356  and  _358
REMARK  129  A    between atoms: _358  and  _359
REMARK  130  A    between atoms: _358  and  _361
REMARK  131  A    between atoms: _361  and  _362
REMARK  132  A    between atoms: _365  and  _367
REMARK  133  A    between atoms: _367  and  _368
REMARK  134  A    between atoms: _367  and  _370
REMARK  135  A    between atoms: _370  and  _371
REMARK  136  A    between atoms: _374  and  _376
REMARK  137  A    between atoms: _376  and  _377
REMARK  138  A    between atoms: _376  and  _379
REMARK  139  A    between atoms: _381  and  _383
REMARK  140  A    between atoms: _383  and  _384
REMARK  141  A    between atoms: _383  and  _386
REMARK  142  A    between atoms: _389  and  _391
REMARK  143  A    between atoms: _391  and  _392
REMARK  144  A    between atoms: _391  and  _394
REMARK  145  A    between atoms: _394  and  _395
REMARK  146  A    between atoms: _405  and  _407
REMARK  147  A    between atoms: _407  and  _408
REMARK  148  A    between atoms: _407  and  _410
REMARK  149  A    between atoms: _410  and  _411
REMARK  150  A    between atoms: _416  and  _418
REMARK  151  A    between atoms: _418  and  _419
REMARK  152  A    between atoms: _418  and  _421
REMARK  153  A    between atoms: _421  and  _422
REMARK  154  A    between atoms: _422  and  _423
REMARK  155  A    between atoms: _423  and  _424
REMARK                            x       y       z     vdW  Elec       q    Type
REMARK                         _______ _______ _______ _____ _____    ______ ____
ROOT
ATOM      1  CB  ASN A   1      -2.123  -7.125  10.559  0.00  0.00    +0.110 C 
ENDROOT
BRANCH   1   2
ATOM      2  CG  ASN A   1      -3.599  -7.348  10.322  0.00  0.00    +0.221 C 
ATOM      3  OD1 ASN A   1      -4.199  -8.258  10.887  0.00  0.00    -0.275 OA
ATOM      4  ND2 ASN A   1      -4.188  -6.532   9.466  0.00  0.00    -0.329 N 
ATOM      5 HD21 ASN A   1      -5.198  -6.648   9.248  0.00  0.00    +0.145 HD
ATOM      6 HD22 ASN A   1      -3.641  -5.774   9.010  0.00  0.00    +0.145 HD
ENDBRANCH   1   2
BRANCH   1   7
ATOM      7  CA  ASN A   1      -1.550  -8.036  11.649  0.00  0.00    +0.142 C 
BRANCH   7   8
ATOM      8  N   ASN A   1      -1.924  -9.420  11.412  0.00  0.00    -0.239 NA
ATOM      9  H   ASN A   1      -2.831  -9.635  10.951  0.00  0.00    +0.142 HD
ENDBRANCH   7   8
BRANCH   7  10
ATOM     10  C   ASN A   1      -2.081  -7.637  13.028  0.00  0.00    +0.225 C 
ATOM     11  O   ASN A   1      -2.789  -6.644  13.161  0.00  0.00    -0.287 OA
ENDBRANCH   7  10
ENDBRANCH   1   7
TORSDOF 4
REMARK  Name = ../refined-set-2016/1g45/1g45_pocket.pdb
REMARK  155 active torsions:
REMARK  status: ('A' for Active; 'I' for Inactive)
REMARK    1  A    between atoms: _1  and  _3
REMARK    2  A    between atoms: _3  and  _4
REMARK    3  A    between atoms: _3  and  _6
REMARK    4  A    between atoms: _6  and  _7
REMARK    5  A    between atoms: _12  and  _14
REMARK    6  A    between atoms: _14  and  _15
REMARK    7  A    between atoms: _14  and  _17
REMARK    8  A    between atoms: _17  and  _18
REMARK    9  A    between atoms: _28  and  _30
REMARK   10  A    between atoms: _30  and  _31
REMARK   11  A    between atoms: _30  and  _33
REMARK   12  A    between atoms: _33  and  _34
REMARK   13  A    between atoms: _39  and  _40
REMARK   14  A    between atoms: _42  and  _44
REMARK   15  A    between atoms: _44  and  _45
REMARK   16  A    between atoms: _44  and  _47
REMARK   17  A    between atoms: _47  and  _48
REMARK   18  A    between atoms: _51  and  _52
REMARK   19  A    between atoms: _57  and  _59
REMARK   20  A    between atoms: _59  and  _60
REMARK   21  A    between atoms: _59  and  _62
REMARK   22  A    between atoms: _62  and  _63
REMARK   23  A    between atoms: _68  and  _70
REMARK   24  A    between atoms: _70  and  _71
REMARK   25  A    between atoms: _74  and  _76
REMARK   26  A    between atoms: _76  and  _77
REMARK   27  A    between atoms: _76  and  _79
REMARK   28  A    between atoms: _79  and  _80
REMARK   29  A    between atoms: _85  and  _87
REMARK   30  A    between atoms: _87  and  _88
REMARK   31  A    between atoms: _87  and  _90
REMARK   32  A    between atoms: _90  and  _91
REMARK   33  A    between atoms: _94  and  _96
REMARK   34  A    between atoms: _96  and  _97
REMARK   35  A    between atoms: _96  and  _99
REMARK   36  A    between atoms: _99  and  _100
REMARK   37  A    between atoms: _100  and  _101
REMARK   38  A    between atoms: _106  and  _108
REMARK   39  A    between atoms: _108  and  _109
REMARK   40  A    between atoms: _108  and  _111
REMARK   41  A    between atoms: _111  and  _112
REMARK   42  A    between atoms: _118  and  _120
REMARK   43  A    between atoms: _131  and  _134
REMARK   44  A    between atoms: _134  and  _135
REMARK   45  A    between atoms: _143  and  _144
REMARK   46  A    between atoms: _152  and  _154
REMARK   47  A    between atoms: _154  and  _155
REMARK   48  A    between atoms: _154  and  _157
REMARK   49  A    between atoms: _157  and  _158
REMARK   50  A    between atoms: _158  and  _159
REMARK   51  A    between atoms: _162  and  _164
REMARK   52  A    between atoms: _164  and  _165
REMARK   53  A    between atoms: _164  and  _167
REMARK   54  A    between atoms: _167  and  _168
REMARK   55  A    between atoms: _173  and  _175
REMARK   56  A    between atoms: _175  and  _176
REMARK   57  A    between atoms: _175  and  _178
REMARK   58  A    between atoms: _178  and  _179
REMARK   59  A    between atoms: _179  and  _180
REMARK   60  A    between atoms: _183  and  _185
REMARK   61  A    between atoms: _185  and  _186
REMARK   62  A    between atoms: _185  and  _188
REMARK   63  A    between atoms: _188  and  _189
REMARK   64  A    between atoms: _192  and  _194
REMARK   65  A    between atoms: _194  and  _195
REMARK   66  A    between atoms: _194  and  _197
REMARK   67  A    between atoms: _197  and  _198
REMARK   68  A    between atoms: _199  and  ZN_433
REMARK   69  A    between atoms: _203  and  _205
REMARK   70  A    between atoms: _205  and  _206
REMARK   71  A    between atoms: _205  and  _208
REMARK   72  A    between atoms: _208  and  _209
REMARK   73  A    between atoms: _212  and  _214
REMARK   74  A    between atoms: _214  and  _215
REMARK   75  A    between atoms: _214  and  _217
REMARK   76  A    between atoms: _220  and  _222
REMARK   77  A    between atoms: _222  and  _223
REMARK   78  A    between atoms: _222  and  _225
REMARK   79  A    between atoms: _225  and  _226
REMARK   80  A    between atoms: _231  and  _233
REMARK   81  A    between atoms: _233  and  _234
REMARK   82  A    between atoms: _233  and  _236
REMARK   83  A    between atoms: _239  and  _241
REMARK   84  A    between atoms: _241  and  _242
REMARK   85  A    between atoms: _244  and  _246
REMARK   86  A    between atoms: _246  and  _247
REMARK   87  A    between atoms: _250  and  _252
REMARK   88  A    between atoms: _252  and  _253
REMARK   89  A    between atoms: _252  and  _255
REMARK   90  A    between atoms: _258  and  _260
REMARK   91  A    between atoms: _260  and  _261
REMARK   92  A    between atoms: _260  and  _263
REMARK   93  A    between atoms: _263  and  _264
REMARK   94  A    between atoms: _264  and  _265
REMARK   95  A    between atoms: _270  and  _272
REMARK   96  A    between atoms: _272  and  _273
REMARK   97  A    between atoms: _272  and  _275
REMARK   98  A    between atoms: _275  and  _276
REMARK   99  A    between atoms: _279  and  _281
REMARK  100  A    between atoms: _281  and  _282
REMARK  101  A    between atoms: _285  and  _287
REMARK  102  A    between atoms: _287  and  _288
REMARK  103  A    between atoms: _287  and  _290
REMARK  104  A    between atoms: _293  and  _295
REMARK  105  A    between atoms: _295  and  _296
REMARK  106  A    between atoms: _295  and  _298
REMARK  107  A    between atoms: _298  and  _299
REMARK  108  A    between atoms: _302  and  _304
REMARK  109  A    between atoms: _304  and  _305
REMARK  110  A    between atoms: _307  and  _309
REMARK  111  A    between atoms: _309  and  _310
REMARK  112  A    between atoms: _309  and  _312
REMARK  113  A    between atoms: _312  and  _313
REMARK  114  A    between atoms: _315  and  _317
REMARK  115  A    between atoms: _317  and  _318
REMARK  116  A    between atoms: _317  and  _320
REMARK  117  A    between atoms: _320  and  _321
REMARK  118  A    between atoms: _324  and  _326
REMARK  119  A    between atoms: _326  and  _327
REMARK  120  A    between atoms: _326  and  _329
REMARK  121  A    between atoms: _329  and  _330
REMARK  122  A    between atoms: _333  and  _335
REMARK  123  A    between atoms: _335  and  _336
REMARK  124  A    between atoms: _335  and  _338
REMARK  125  A    between atoms: _338  and  _339
REMARK  126  A    between atoms: _343  and  _344
REMARK  127  A    between atoms: _350  and  _351
REMARK  128  A    between atoms: _356  and  _358
REMARK  129  A    between atoms: _358  and  _359
REMARK  130  A    between atoms: _358  and  _361
REMARK  131  A    between atoms: _361  and  _362
REMARK  132  A    between atoms: _365  and  _367
REMARK  133  A    between atoms: _367  and  _368
REMARK  134  A    between atoms: _367  and  _370
REMARK  135  A    between atoms: _370  and  _371
REMARK  136  A    between atoms: _374  and  _376
REMARK  137  A    between atoms: _376  and  _377
REMARK  138  A    between atoms: _376  and  _379
REMARK  139  A    between atoms: _381  and  _383
REMARK  140  A    between atoms: _383  and  _384
REMARK  141  A    between atoms: _383  and  _386
REMARK  142  A    between atoms: _389  and  _391
REMARK  143  A    between atoms: _391  and  _392
REMARK  144  A    between atoms: _391  and  _394
REMARK  145  A    between atoms: _394  and  _395
REMARK  146  A    between atoms: _405  and  _407
REMARK  147  A    between atoms: _407  and  _408
REMARK  148  A    between atoms: _407  and  _410
REMARK  149  A    between atoms: _410  and  _411
REMARK  150  A    between atoms: _416  and  _418
REMARK  151  A    between atoms: _418  and  _419
REMARK  152  A    between atoms: _418  and  _421
REMARK  153  A    between atoms: _421  and  _422
REMARK  154  A    between atoms: _422  and  _423
REMARK  155  A    between atoms: _423  and  _424
REMARK                            x       y       z     vdW  Elec       q    Type
REMARK                         _______ _______ _______ _____ _____    ______ ____
ROOT
ATOM      1  NE  ARG A   1       2.181  -3.772  21.167  0.00  0.00    -0.265 N 
ATOM      2  CZ  ARG A   1       2.325  -2.832  22.091  0.00  0.00    +0.342 C 
ATOM      3  NH2 ARG A   1       3.529  -2.580  22.598  0.00  0.00    -0.292 N 
ATOM      4 HH21 ARG A   1       3.644  -1.843  23.323  0.00  0.00    +0.255 HD
ATOM      5 HH22 ARG A   1       4.355  -3.120  22.269  0.00  0.00    +0.255 HD
ATOM      6  NH1 ARG A   1       1.288  -2.121  22.487  0.00  0.00    -0.292 N 
ATOM      7 HH11 ARG A   1       1.408  -1.385  23.212  0.00  0.00    +0.255 HD
ATOM      8 HH12 ARG A   1       0.350  -2.296  22.074  0.00  0.00    +0.255 HD
ATOM      9  HE  ARG A   1       3.028  -4.310  20.895  0.00  0.00    +0.259 HD
ENDROOT
BRANCH   1  10
ATOM     10  CD  ARG A   1       0.933  -4.109  20.505  0.00  0.00    +0.174 C 
BRANCH  10  11
ATOM     11  CG  ARG A   1       1.036  -5.496  19.913  0.00  0.00    +0.045 C 
BRANCH  11  12
ATOM     12  CB  ARG A   1      -0.095  -5.752  18.964  0.00  0.00    +0.029 C 
BRANCH  12  13
ATOM     13  CA  ARG A   1      -0.164  -7.193  18.480  0.00  0.00    +0.133 C 
BRANCH  13  14
ATOM     14  N   ARG A   1      -1.166  -7.328  17.442  0.00  0.00    -0.239 NA
ATOM     15  H   ARG A   1      -2.030  -6.751  17.500  0.00  0.00    +0.142 HD
ENDBRANCH  13  14
BRANCH  13  16
ATOM     16  C   ARG A   1      -0.585  -8.071  19.640  0.00  0.00    +0.224 C 
ATOM     17  O   ARG A   1      -1.756  -8.094  20.018  0.00  0.00    -0.287 OA
ENDBRANCH  13  16
ENDBRANCH  12  13
ENDBRANCH  11  12
ENDBRANCH  10  11
ENDBRANCH   1  10
TORSDOF 6
REMARK  Name = ../refined-set-2016/1g45/1g45_pocket.pdb
REMARK  155 active torsions:
REMARK  status: ('A' for Active; 'I' for Inactive)
REMARK    1  A    between atoms: _1  and  _3
REMARK    2  A    between atoms: _3  and  _4
REMARK    3  A    between atoms: _3  and  _6
REMARK    4  A    between atoms: _6  and  _7
REMARK    5  A    between atoms: _12  and  _14
REMARK    6  A    between atoms: _14  and  _15
REMARK    7  A    between atoms: _14  and  _17
REMARK    8  A    between atoms: _17  and  _18
REMARK    9  A    between atoms: _28  and  _30
REMARK   10  A    between atoms: _30  and  _31
REMARK   11  A    between atoms: _30  and  _33
REMARK   12  A    between atoms: _33  and  _34
REMARK   13  A    between atoms: _39  and  _40
REMARK   14  A    between atoms: _42  and  _44
REMARK   15  A    between atoms: _44  and  _45
REMARK   16  A    between atoms: _44  and  _47
REMARK   17  A    between atoms: _47  and  _48
REMARK   18  A    between atoms: _51  and  _52
REMARK   19  A    between atoms: _57  and  _59
REMARK   20  A    between atoms: _59  and  _60
REMARK   21  A    between atoms: _59  and  _62
REMARK   22  A    between atoms: _62  and  _63
REMARK   23  A    between atoms: _68  and  _70
REMARK   24  A    between atoms: _70  and  _71
REMARK   25  A    between atoms: _74  and  _76
REMARK   26  A    between atoms: _76  and  _77
REMARK   27  A    between atoms: _76  and  _79
REMARK   28  A    between atoms: _79  and  _80
REMARK   29  A    between atoms: _85  and  _87
REMARK   30  A    between atoms: _87  and  _88
REMARK   31  A    between atoms: _87  and  _90
REMARK   32  A    between atoms: _90  and  _91
REMARK   33  A    between atoms: _94  and  _96
REMARK   34  A    between atoms: _96  and  _97
REMARK   35  A    between atoms: _96  and  _99
REMARK   36  A    between atoms: _99  and  _100
REMARK   37  A    between atoms: _100  and  _101
REMARK   38  A    between atoms: _106  and  _108
REMARK   39  A    between atoms: _108  and  _109
REMARK   40  A    between atoms: _108  and  _111
REMARK   41  A    between atoms: _111  and  _112
REMARK   42  A    between atoms: _118  and  _120
REMARK   43  A    between atoms: _131  and  _134
REMARK   44  A    between atoms: _134  and  _135
REMARK   45  A    between atoms: _143  and  _144
REMARK   46  A    between atoms: _152  and  _154
REMARK   47  A    between atoms: _154  and  _155
REMARK   48  A    between atoms: _154  and  _157
REMARK   49  A    between atoms: _157  and  _158
REMARK   50  A    between atoms: _158  and  _159
REMARK   51  A    between atoms: _162  and  _164
REMARK   52  A    between atoms: _164  and  _165
REMARK   53  A    between atoms: _164  and  _167
REMARK   54  A    between atoms: _167  and  _168
REMARK   55  A    between atoms: _173  and  _175
REMARK   56  A    between atoms: _175  and  _176
REMARK   57  A    between atoms: _175  and  _178
REMARK   58  A    between atoms: _178  and  _179
REMARK   59  A    between atoms: _179  and  _180
REMARK   60  A    between atoms: _183  and  _185
REMARK   61  A    between atoms: _185  and  _186
REMARK   62  A    between atoms: _185  and  _188
REMARK   63  A    between atoms: _188  and  _189
REMARK   64  A    between atoms: _192  and  _194
REMARK   65  A    between atoms: _194  and  _195
REMARK   66  A    between atoms: _194  and  _197
REMARK   67  A    between atoms: _197  and  _198
REMARK   68  A    between atoms: _199  and  ZN_433
REMARK   69  A    between atoms: _203  and  _205
REMARK   70  A    between atoms: _205  and  _206
REMARK   71  A    between atoms: _205  and  _208
REMARK   72  A    between atoms: _208  and  _209
REMARK   73  A    between atoms: _212  and  _214
REMARK   74  A    between atoms: _214  and  _215
REMARK   75  A    between atoms: _214  and  _217
REMARK   76  A    between atoms: _220  and  _222
REMARK   77  A    between atoms: _222  and  _223
REMARK   78  A    between atoms: _222  and  _225
REMARK   79  A    between atoms: _225  and  _226
REMARK   80  A    between atoms: _231  and  _233
REMARK   81  A    between atoms: _233  and  _234
REMARK   82  A    between atoms: _233  and  _236
REMARK   83  A    between atoms: _239  and  _241
REMARK   84  A    between atoms: _241  and  _242
REMARK   85  A    between atoms: _244  and  _246
REMARK   86  A    between atoms: _246  and  _247
REMARK   87  A    between atoms: _250  and  _252
REMARK   88  A    between atoms: _252  and  _253
REMARK   89  A    between atoms: _252  and  _255
REMARK   90  A    between atoms: _258  and  _260
REMARK   91  A    between atoms: _260  and  _261
REMARK   92  A    between atoms: _260  and  _263
REMARK   93  A    between atoms: _263  and  _264
REMARK   94  A    between atoms: _264  and  _265
REMARK   95  A    between atoms: _270  and  _272
REMARK   96  A    between atoms: _272  and  _273
REMARK   97  A    between atoms: _272  and  _275
REMARK   98  A    between atoms: _275  and  _276
REMARK   99  A    between atoms: _279  and  _281
REMARK  100  A    between atoms: _281  and  _282
REMARK  101  A    between atoms: _285  and  _287
REMARK  102  A    between atoms: _287  and  _288
REMARK  103  A    between atoms: _287  and  _290
REMARK  104  A    between atoms: _293  and  _295
REMARK  105  A    between atoms: _295  and  _296
REMARK  106  A    between atoms: _295  and  _298
REMARK  107  A    between atoms: _298  and  _299
REMARK  108  A    between atoms: _302  and  _304
REMARK  109  A    between atoms: _304  and  _305
REMARK  110  A    between atoms: _307  and  _309
REMARK  111  A    between atoms: _309  and  _310
REMARK  112  A    between atoms: _309  and  _312
REMARK  113  A    between atoms: _312  and  _313
REMARK  114  A    between atoms: _315  and  _317
REMARK  115  A    between atoms: _317  and  _318
REMARK  116  A    between atoms: _317  and  _320
REMARK  117  A    between atoms: _320  and  _321
REMARK  118  A    between atoms: _324  and  _326
REMARK  119  A    between atoms: _326  and  _327
REMARK  120  A    between atoms: _326  and  _329
REMARK  121  A    between atoms: _329  and  _330
REMARK  122  A    between atoms: _333  and  _335
REMARK  123  A    between atoms: _335  and  _336
REMARK  124  A    between atoms: _335  and  _338
REMARK  125  A    between atoms: _338  and  _339
REMARK  126  A    between atoms: _343  and  _344
REMARK  127  A    between atoms: _350  and  _351
REMARK  128  A    between atoms: _356  and  _358
REMARK  129  A    between atoms: _358  and  _359
REMARK  130  A    between atoms: _358  and  _361
REMARK  131  A    between atoms: _361  and  _362
REMARK  132  A    between atoms: _365  and  _367
REMARK  133  A    between atoms: _367  and  _368
REMARK  134  A    between atoms: _367  and  _370
REMARK  135  A    between atoms: _370  and  _371
REMARK  136  A    between atoms: _374  and  _376
REMARK  137  A    between atoms: _376  and  _377
REMARK  138  A    between atoms: _376  and  _379
REMARK  139  A    between atoms: _381  and  _383
REMARK  140  A    between atoms: _383  and  _384
REMARK  141  A    between atoms: _383  and  _386
REMARK  142  A    between atoms: _389  and  _391
REMARK  143  A    between atoms: _391  and  _392
REMARK  144  A    between atoms: _391  and  _394
REMARK  145  A    between atoms: _394  and  _395
REMARK  146  A    between atoms: _405  and  _407
REMARK  147  A    between atoms: _407  and  _408
REMARK  148  A    between atoms: _407  and  _410
REMARK  149  A    between atoms: _410  and  _411
REMARK  150  A    between atoms: _416  and  _418
REMARK  151  A    between atoms: _418  and  _419
REMARK  152  A    between atoms: _418  and  _421
REMARK  153  A    between atoms: _421  and  _422
REMARK  154  A    between atoms: _422  and  _423
REMARK  155  A    between atoms: _423  and  _424
REMARK                            x       y       z     vdW  Elec       q    Type
REMARK                         _______ _______ _______ _____ _____    ______ ____
ROOT
ATOM      1  O   HOH     1      -2.556  -3.128  11.603  0.00  0.00    +0.000 OA
ENDROOT
TORSDOF 0
REMARK  Name = ../refined-set-2016/1g45/1g45_pocket.pdb
REMARK  155 active torsions:
REMARK  status: ('A' for Active; 'I' for Inactive)
REMARK    1  A    between atoms: _1  and  _3
REMARK    2  A    between atoms: _3  and  _4
REMARK    3  A    between atoms: _3  and  _6
REMARK    4  A    between atoms: _6  and  _7
REMARK    5  A    between atoms: _12  and  _14
REMARK    6  A    between atoms: _14  and  _15
REMARK    7  A    between atoms: _14  and  _17
REMARK    8  A    between atoms: _17  and  _18
REMARK    9  A    between atoms: _28  and  _30
REMARK   10  A    between atoms: _30  and  _31
REMARK   11  A    between atoms: _30  and  _33
REMARK   12  A    between atoms: _33  and  _34
REMARK   13  A    between atoms: _39  and  _40
REMARK   14  A    between atoms: _42  and  _44
REMARK   15  A    between atoms: _44  and  _45
REMARK   16  A    between atoms: _44  and  _47
REMARK   17  A    between atoms: _47  and  _48
REMARK   18  A    between atoms: _51  and  _52
REMARK   19  A    between atoms: _57  and  _59
REMARK   20  A    between atoms: _59  and  _60
REMARK   21  A    between atoms: _59  and  _62
REMARK   22  A    between atoms: _62  and  _63
REMARK   23  A    between atoms: _68  and  _70
REMARK   24  A    between atoms: _70  and  _71
REMARK   25  A    between atoms: _74  and  _76
REMARK   26  A    between atoms: _76  and  _77
REMARK   27  A    between atoms: _76  and  _79
REMARK   28  A    between atoms: _79  and  _80
REMARK   29  A    between atoms: _85  and  _87
REMARK   30  A    between atoms: _87  and  _88
REMARK   31  A    between atoms: _87  and  _90
REMARK   32  A    between atoms: _90  and  _91
REMARK   33  A    between atoms: _94  and  _96
REMARK   34  A    between atoms: _96  and  _97
REMARK   35  A    between atoms: _96  and  _99
REMARK   36  A    between atoms: _99  and  _100
REMARK   37  A    between atoms: _100  and  _101
REMARK   38  A    between atoms: _106  and  _108
REMARK   39  A    between atoms: _108  and  _109
REMARK   40  A    between atoms: _108  and  _111
REMARK   41  A    between atoms: _111  and  _112
REMARK   42  A    between atoms: _118  and  _120
REMARK   43  A    between atoms: _131  and  _134
REMARK   44  A    between atoms: _134  and  _135
REMARK   45  A    between atoms: _143  and  _144
REMARK   46  A    between atoms: _152  and  _154
REMARK   47  A    between atoms: _154  and  _155
REMARK   48  A    between atoms: _154  and  _157
REMARK   49  A    between atoms: _157  and  _158
REMARK   50  A    between atoms: _158  and  _159
REMARK   51  A    between atoms: _162  and  _164
REMARK   52  A    between atoms: _164  and  _165
REMARK   53  A    between atoms: _164  and  _167
REMARK   54  A    between atoms: _167  and  _168
REMARK   55  A    between atoms: _173  and  _175
REMARK   56  A    between atoms: _175  and  _176
REMARK   57  A    between atoms: _175  and  _178
REMARK   58  A    between atoms: _178  and  _179
REMARK   59  A    between atoms: _179  and  _180
REMARK   60  A    between atoms: _183  and  _185
REMARK   61  A    between atoms: _185  and  _186
REMARK   62  A    between atoms: _185  and  _188
REMARK   63  A    between atoms: _188  and  _189
REMARK   64  A    between atoms: _192  and  _194
REMARK   65  A    between atoms: _194  and  _195
REMARK   66  A    between atoms: _194  and  _197
REMARK   67  A    between atoms: _197  and  _198
REMARK   68  A    between atoms: _199  and  ZN_433
REMARK   69  A    between atoms: _203  and  _205
REMARK   70  A    between atoms: _205  and  _206
REMARK   71  A    between atoms: _205  and  _208
REMARK   72  A    between atoms: _208  and  _209
REMARK   73  A    between atoms: _212  and  _214
REMARK   74  A    between atoms: _214  and  _215
REMARK   75  A    between atoms: _214  and  _217
REMARK   76  A    between atoms: _220  and  _222
REMARK   77  A    between atoms: _222  and  _223
REMARK   78  A    between atoms: _222  and  _225
REMARK   79  A    between atoms: _225  and  _226
REMARK   80  A    between atoms: _231  and  _233
REMARK   81  A    between atoms: _233  and  _234
REMARK   82  A    between atoms: _233  and  _236
REMARK   83  A    between atoms: _239  and  _241
REMARK   84  A    between atoms: _241  and  _242
REMARK   85  A    between atoms: _244  and  _246
REMARK   86  A    between atoms: _246  and  _247
REMARK   87  A    between atoms: _250  and  _252
REMARK   88  A    between atoms: _252  and  _253
REMARK   89  A    between atoms: _252  and  _255
REMARK   90  A    between atoms: _258  and  _260
REMARK   91  A    between atoms: _260  and  _261
REMARK   92  A    between atoms: _260  and  _263
REMARK   93  A    between atoms: _263  and  _264
REMARK   94  A    between atoms: _264  and  _265
REMARK   95  A    between atoms: _270  and  _272
REMARK   96  A    between atoms: _272  and  _273
REMARK   97  A    between atoms: _272  and  _275
REMARK   98  A    between atoms: _275  and  _276
REMARK   99  A    between atoms: _279  and  _281
REMARK  100  A    between atoms: _281  and  _282
REMARK  101  A    between atoms: _285  and  _287
REMARK  102  A    between atoms: _287  and  _288
REMARK  103  A    between atoms: _287  and  _290
REMARK  104  A    between atoms: _293  and  _295
REMARK  105  A    between atoms: _295  and  _296
REMARK  106  A    between atoms: _295  and  _298
REMARK  107  A    between atoms: _298  and  _299
REMARK  108  A    between atoms: _302  and  _304
REMARK  109  A    between atoms: _304  and  _305
REMARK  110  A    between atoms: _307  and  _309
REMARK  111  A    between atoms: _309  and  _310
REMARK  112  A    between atoms: _309  and  _312
REMARK  113  A    between atoms: _312  and  _313
REMARK  114  A    between atoms: _315  and  _317
REMARK  115  A    between atoms: _317  and  _318
REMARK  116  A    between atoms: _317  and  _320
REMARK  117  A    between atoms: _320  and  _321
REMARK  118  A    between atoms: _324  and  _326
REMARK  119  A    between atoms: _326  and  _327
REMARK  120  A    between atoms: _326  and  _329
REMARK  121  A    between atoms: _329  and  _330
REMARK  122  A    between atoms: _333  and  _335
REMARK  123  A    between atoms: _335  and  _336
REMARK  124  A    between atoms: _335  and  _338
REMARK  125  A    between atoms: _338  and  _339
REMARK  126  A    between atoms: _343  and  _344
REMARK  127  A    between atoms: _350  and  _351
REMARK  128  A    between atoms: _356  and  _358
REMARK  129  A    between atoms: _358  and  _359
REMARK  130  A    between atoms: _358  and  _361
REMARK  131  A    between atoms: _361  and  _362
REMARK  132  A    between atoms: _365  and  _367
REMARK  133  A    between atoms: _367  and  _368
REMARK  134  A    between atoms: _367  and  _370
REMARK  135  A    between atoms: _370  and  _371
REMARK  136  A    between atoms: _374  and  _376
REMARK  137  A    between atoms: _376  and  _377
REMARK  138  A    between atoms: _376  and  _379
REMARK  139  A    between atoms: _381  and  _383
REMARK  140  A    between atoms: _383  and  _384
REMARK  141  A    between atoms: _383  and  _386
REMARK  142  A    between atoms: _389  and  _391
REMARK  143  A    between atoms: _391  and  _392
REMARK  144  A    between atoms: _391  and  _394
REMARK  145  A    between atoms: _394  and  _395
REMARK  146  A    between atoms: _405  and  _407
REMARK  147  A    between atoms: _407  and  _408
REMARK  148  A    between atoms: _407  and  _410
REMARK  149  A    between atoms: _410  and  _411
REMARK  150  A    between atoms: _416  and  _418
REMARK  151  A    between atoms: _418  and  _419
REMARK  152  A    between atoms: _418  and  _421
REMARK  153  A    between atoms: _421  and  _422
REMARK  154  A    between atoms: _422  and  _423
REMARK  155  A    between atoms: _423  and  _424
REMARK                            x       y       z     vdW  Elec       q    Type
REMARK                         _______ _______ _______ _____ _____    ______ ____
ROOT
ATOM      1  O   HOH     1      -7.122   6.271   7.028  0.00  0.00    +0.000 OA
ENDROOT
TORSDOF 0
REMARK  Name = ../refined-set-2016/1g45/1g45_pocket.pdb
REMARK  155 active torsions:
REMARK  status: ('A' for Active; 'I' for Inactive)
REMARK    1  A    between atoms: _1  and  _3
REMARK    2  A    between atoms: _3  and  _4
REMARK    3  A    between atoms: _3  and  _6
REMARK    4  A    between atoms: _6  and  _7
REMARK    5  A    between atoms: _12  and  _14
REMARK    6  A    between atoms: _14  and  _15
REMARK    7  A    between atoms: _14  and  _17
REMARK    8  A    between atoms: _17  and  _18
REMARK    9  A    between atoms: _28  and  _30
REMARK   10  A    between atoms: _30  and  _31
REMARK   11  A    between atoms: _30  and  _33
REMARK   12  A    between atoms: _33  and  _34
REMARK   13  A    between atoms: _39  and  _40
REMARK   14  A    between atoms: _42  and  _44
REMARK   15  A    between atoms: _44  and  _45
REMARK   16  A    between atoms: _44  and  _47
REMARK   17  A    between atoms: _47  and  _48
REMARK   18  A    between atoms: _51  and  _52
REMARK   19  A    between atoms: _57  and  _59
REMARK   20  A    between atoms: _59  and  _60
REMARK   21  A    between atoms: _59  and  _62
REMARK   22  A    between atoms: _62  and  _63
REMARK   23  A    between atoms: _68  and  _70
REMARK   24  A    between atoms: _70  and  _71
REMARK   25  A    between atoms: _74  and  _76
REMARK   26  A    between atoms: _76  and  _77
REMARK   27  A    between atoms: _76  and  _79
REMARK   28  A    between atoms: _79  and  _80
REMARK   29  A    between atoms: _85  and  _87
REMARK   30  A    between atoms: _87  and  _88
REMARK   31  A    between atoms: _87  and  _90
REMARK   32  A    between atoms: _90  and  _91
REMARK   33  A    between atoms: _94  and  _96
REMARK   34  A    between atoms: _96  and  _97
REMARK   35  A    between atoms: _96  and  _99
REMARK   36  A    between atoms: _99  and  _100
REMARK   37  A    between atoms: _100  and  _101
REMARK   38  A    between atoms: _106  and  _108
REMARK   39  A    between atoms: _108  and  _109
REMARK   40  A    between atoms: _108  and  _111
REMARK   41  A    between atoms: _111  and  _112
REMARK   42  A    between atoms: _118  and  _120
REMARK   43  A    between atoms: _131  and  _134
REMARK   44  A    between atoms: _134  and  _135
REMARK   45  A    between atoms: _143  and  _144
REMARK   46  A    between atoms: _152  and  _154
REMARK   47  A    between atoms: _154  and  _155
REMARK   48  A    between atoms: _154  and  _157
REMARK   49  A    between atoms: _157  and  _158
REMARK   50  A    between atoms: _158  and  _159
REMARK   51  A    between atoms: _162  and  _164
REMARK   52  A    between atoms: _164  and  _165
REMARK   53  A    between atoms: _164  and  _167
REMARK   54  A    between atoms: _167  and  _168
REMARK   55  A    between atoms: _173  and  _175
REMARK   56  A    between atoms: _175  and  _176
REMARK   57  A    between atoms: _175  and  _178
REMARK   58  A    between atoms: _178  and  _179
REMARK   59  A    between atoms: _179  and  _180
REMARK   60  A    between atoms: _183  and  _185
REMARK   61  A    between atoms: _185  and  _186
REMARK   62  A    between atoms: _185  and  _188
REMARK   63  A    between atoms: _188  and  _189
REMARK   64  A    between atoms: _192  and  _194
REMARK   65  A    between atoms: _194  and  _195
REMARK   66  A    between atoms: _194  and  _197
REMARK   67  A    between atoms: _197  and  _198
REMARK   68  A    between atoms: _199  and  ZN_433
REMARK   69  A    between atoms: _203  and  _205
REMARK   70  A    between atoms: _205  and  _206
REMARK   71  A    between atoms: _205  and  _208
REMARK   72  A    between atoms: _208  and  _209
REMARK   73  A    between atoms: _212  and  _214
REMARK   74  A    between atoms: _214  and  _215
REMARK   75  A    between atoms: _214  and  _217
REMARK   76  A    between atoms: _220  and  _222
REMARK   77  A    between atoms: _222  and  _223
REMARK   78  A    between atoms: _222  and  _225
REMARK   79  A    between atoms: _225  and  _226
REMARK   80  A    between atoms: _231  and  _233
REMARK   81  A    between atoms: _233  and  _234
REMARK   82  A    between atoms: _233  and  _236
REMARK   83  A    between atoms: _239  and  _241
REMARK   84  A    between atoms: _241  and  _242
REMARK   85  A    between atoms: _244  and  _246
REMARK   86  A    between atoms: _246  and  _247
REMARK   87  A    between atoms: _250  and  _252
REMARK   88  A    between atoms: _252  and  _253
REMARK   89  A    between atoms: _252  and  _255
REMARK   90  A    between atoms: _258  and  _260
REMARK   91  A    between atoms: _260  and  _261
REMARK   92  A    between atoms: _260  and  _263
REMARK   93  A    between atoms: _263  and  _264
REMARK   94  A    between atoms: _264  and  _265
REMARK   95  A    between atoms: _270  and  _272
REMARK   96  A    between atoms: _272  and  _273
REMARK   97  A    between atoms: _272  and  _275
REMARK   98  A    between atoms: _275  and  _276
REMARK   99  A    between atoms: _279  and  _281
REMARK  100  A    between atoms: _281  and  _282
REMARK  101  A    between atoms: _285  and  _287
REMARK  102  A    between atoms: _287  and  _288
REMARK  103  A    between atoms: _287  and  _290
REMARK  104  A    between atoms: _293  and  _295
REMARK  105  A    between atoms: _295  and  _296
REMARK  106  A    between atoms: _295  and  _298
REMARK  107  A    between atoms: _298  and  _299
REMARK  108  A    between atoms: _302  and  _304
REMARK  109  A    between atoms: _304  and  _305
REMARK  110  A    between atoms: _307  and  _309
REMARK  111  A    between atoms: _309  and  _310
REMARK  112  A    between atoms: _309  and  _312
REMARK  113  A    between atoms: _312  and  _313
REMARK  114  A    between atoms: _315  and  _317
REMARK  115  A    between atoms: _317  and  _318
REMARK  116  A    between atoms: _317  and  _320
REMARK  117  A    between atoms: _320  and  _321
REMARK  118  A    between atoms: _324  and  _326
REMARK  119  A    between atoms: _326  and  _327
REMARK  120  A    between atoms: _326  and  _329
REMARK  121  A    between atoms: _329  and  _330
REMARK  122  A    between atoms: _333  and  _335
REMARK  123  A    between atoms: _335  and  _336
REMARK  124  A    between atoms: _335  and  _338
REMARK  125  A    between atoms: _338  and  _339
REMARK  126  A    between atoms: _343  and  _344
REMARK  127  A    between atoms: _350  and  _351
REMARK  128  A    between atoms: _356  and  _358
REMARK  129  A    between atoms: _358  and  _359
REMARK  130  A    between atoms: _358  and  _361
REMARK  131  A    between atoms: _361  and  _362
REMARK  132  A    between atoms: _365  and  _367
REMARK  133  A    between atoms: _367  and  _368
REMARK  134  A    between atoms: _367  and  _370
REMARK  135  A    between atoms: _370  and  _371
REMARK  136  A    between atoms: _374  and  _376
REMARK  137  A    between atoms: _376  and  _377
REMARK  138  A    between atoms: _376  and  _379
REMARK  139  A    between atoms: _381  and  _383
REMARK  140  A    between atoms: _383  and  _384
REMARK  141  A    between atoms: _383  and  _386
REMARK  142  A    between atoms: _389  and  _391
REMARK  143  A    between atoms: _391  and  _392
REMARK  144  A    between atoms: _391  and  _394
REMARK  145  A    between atoms: _394  and  _395
REMARK  146  A    between atoms: _405  and  _407
REMARK  147  A    between atoms: _407  and  _408
REMARK  148  A    between atoms: _407  and  _410
REMARK  149  A    between atoms: _410  and  _411
REMARK  150  A    between atoms: _416  and  _418
REMARK  151  A    between atoms: _418  and  _419
REMARK  152  A    between atoms: _418  and  _421
REMARK  153  A    between atoms: _421  and  _422
REMARK  154  A    between atoms: _422  and  _423
REMARK  155  A    between atoms: _423  and  _424
REMARK                            x       y       z     vdW  Elec       q    Type
REMARK                         _______ _______ _______ _____ _____    ______ ____
ROOT
ATOM      1  O   HOH     1      -0.890   3.966  13.337  0.00  0.00    +0.000 OA
ENDROOT
TORSDOF 0
REMARK  Name = ../refined-set-2016/1g45/1g45_pocket.pdb
REMARK  155 active torsions:
REMARK  status: ('A' for Active; 'I' for Inactive)
REMARK    1  A    between atoms: _1  and  _3
REMARK    2  A    between atoms: _3  and  _4
REMARK    3  A    between atoms: _3  and  _6
REMARK    4  A    between atoms: _6  and  _7
REMARK    5  A    between atoms: _12  and  _14
REMARK    6  A    between atoms: _14  and  _15
REMARK    7  A    between atoms: _14  and  _17
REMARK    8  A    between atoms: _17  and  _18
REMARK    9  A    between atoms: _28  and  _30
REMARK   10  A    between atoms: _30  and  _31
REMARK   11  A    between atoms: _30  and  _33
REMARK   12  A    between atoms: _33  and  _34
REMARK   13  A    between atoms: _39  and  _40
REMARK   14  A    between atoms: _42  and  _44
REMARK   15  A    between atoms: _44  and  _45
REMARK   16  A    between atoms: _44  and  _47
REMARK   17  A    between atoms: _47  and  _48
REMARK   18  A    between atoms: _51  and  _52
REMARK   19  A    between atoms: _57  and  _59
REMARK   20  A    between atoms: _59  and  _60
REMARK   21  A    between atoms: _59  and  _62
REMARK   22  A    between atoms: _62  and  _63
REMARK   23  A    between atoms: _68  and  _70
REMARK   24  A    between atoms: _70  and  _71
REMARK   25  A    between atoms: _74  and  _76
REMARK   26  A    between atoms: _76  and  _77
REMARK   27  A    between atoms: _76  and  _79
REMARK   28  A    between atoms: _79  and  _80
REMARK   29  A    between atoms: _85  and  _87
REMARK   30  A    between atoms: _87  and  _88
REMARK   31  A    between atoms: _87  and  _90
REMARK   32  A    between atoms: _90  and  _91
REMARK   33  A    between atoms: _94  and  _96
REMARK   34  A    between atoms: _96  and  _97
REMARK   35  A    between atoms: _96  and  _99
REMARK   36  A    between atoms: _99  and  _100
REMARK   37  A    between atoms: _100  and  _101
REMARK   38  A    between atoms: _106  and  _108
REMARK   39  A    between atoms: _108  and  _109
REMARK   40  A    between atoms: _108  and  _111
REMARK   41  A    between atoms: _111  and  _112
REMARK   42  A    between atoms: _118  and  _120
REMARK   43  A    between atoms: _131  and  _134
REMARK   44  A    between atoms: _134  and  _135
REMARK   45  A    between atoms: _143  and  _144
REMARK   46  A    between atoms: _152  and  _154
REMARK   47  A    between atoms: _154  and  _155
REMARK   48  A    between atoms: _154  and  _157
REMARK   49  A    between atoms: _157  and  _158
REMARK   50  A    between atoms: _158  and  _159
REMARK   51  A    between atoms: _162  and  _164
REMARK   52  A    between atoms: _164  and  _165
REMARK   53  A    between atoms: _164  and  _167
REMARK   54  A    between atoms: _167  and  _168
REMARK   55  A    between atoms: _173  and  _175
REMARK   56  A    between atoms: _175  and  _176
REMARK   57  A    between atoms: _175  and  _178
REMARK   58  A    between atoms: _178  and  _179
REMARK   59  A    between atoms: _179  and  _180
REMARK   60  A    between atoms: _183  and  _185
REMARK   61  A    between atoms: _185  and  _186
REMARK   62  A    between atoms: _185  and  _188
REMARK   63  A    between atoms: _188  and  _189
REMARK   64  A    between atoms: _192  and  _194
REMARK   65  A    between atoms: _194  and  _195
REMARK   66  A    between atoms: _194  and  _197
REMARK   67  A    between atoms: _197  and  _198
REMARK   68  A    between atoms: _199  and  ZN_433
REMARK   69  A    between atoms: _203  and  _205
REMARK   70  A    between atoms: _205  and  _206
REMARK   71  A    between atoms: _205  and  _208
REMARK   72  A    between atoms: _208  and  _209
REMARK   73  A    between atoms: _212  and  _214
REMARK   74  A    between atoms: _214  and  _215
REMARK   75  A    between atoms: _214  and  _217
REMARK   76  A    between atoms: _220  and  _222
REMARK   77  A    between atoms: _222  and  _223
REMARK   78  A    between atoms: _222  and  _225
REMARK   79  A    between atoms: _225  and  _226
REMARK   80  A    between atoms: _231  and  _233
REMARK   81  A    between atoms: _233  and  _234
REMARK   82  A    between atoms: _233  and  _236
REMARK   83  A    between atoms: _239  and  _241
REMARK   84  A    between atoms: _241  and  _242
REMARK   85  A    between atoms: _244  and  _246
REMARK   86  A    between atoms: _246  and  _247
REMARK   87  A    between atoms: _250  and  _252
REMARK   88  A    between atoms: _252  and  _253
REMARK   89  A    between atoms: _252  and  _255
REMARK   90  A    between atoms: _258  and  _260
REMARK   91  A    between atoms: _260  and  _261
REMARK   92  A    between atoms: _260  and  _263
REMARK   93  A    between atoms: _263  and  _264
REMARK   94  A    between atoms: _264  and  _265
REMARK   95  A    between atoms: _270  and  _272
REMARK   96  A    between atoms: _272  and  _273
REMARK   97  A    between atoms: _272  and  _275
REMARK   98  A    between atoms: _275  and  _276
REMARK   99  A    between atoms: _279  and  _281
REMARK  100  A    between atoms: _281  and  _282
REMARK  101  A    between atoms: _285  and  _287
REMARK  102  A    between atoms: _287  and  _288
REMARK  103  A    between atoms: _287  and  _290
REMARK  104  A    between atoms: _293  and  _295
REMARK  105  A    between atoms: _295  and  _296
REMARK  106  A    between atoms: _295  and  _298
REMARK  107  A    between atoms: _298  and  _299
REMARK  108  A    between atoms: _302  and  _304
REMARK  109  A    between atoms: _304  and  _305
REMARK  110  A    between atoms: _307  and  _309
REMARK  111  A    between atoms: _309  and  _310
REMARK  112  A    between atoms: _309  and  _312
REMARK  113  A    between atoms: _312  and  _313
REMARK  114  A    between atoms: _315  and  _317
REMARK  115  A    between atoms: _317  and  _318
REMARK  116  A    between atoms: _317  and  _320
REMARK  117  A    between atoms: _320  and  _321
REMARK  118  A    between atoms: _324  and  _326
REMARK  119  A    between atoms: _326  and  _327
REMARK  120  A    between atoms: _326  and  _329
REMARK  121  A    between atoms: _329  and  _330
REMARK  122  A    between atoms: _333  and  _335
REMARK  123  A    between atoms: _335  and  _336
REMARK  124  A    between atoms: _335  and  _338
REMARK  125  A    between atoms: _338  and  _339
REMARK  126  A    between atoms: _343  and  _344
REMARK  127  A    between atoms: _350  and  _351
REMARK  128  A    between atoms: _356  and  _358
REMARK  129  A    between atoms: _358  and  _359
REMARK  130  A    between atoms: _358  and  _361
REMARK  131  A    between atoms: _361  and  _362
REMARK  132  A    between atoms: _365  and  _367
REMARK  133  A    between atoms: _367  and  _368
REMARK  134  A    between atoms: _367  and  _370
REMARK  135  A    between atoms: _370  and  _371
REMARK  136  A    between atoms: _374  and  _376
REMARK  137  A    between atoms: _376  and  _377
REMARK  138  A    between atoms: _376  and  _379
REMARK  139  A    between atoms: _381  and  _383
REMARK  140  A    between atoms: _383  and  _384
REMARK  141  A    between atoms: _383  and  _386
REMARK  142  A    between atoms: _389  and  _391
REMARK  143  A    between atoms: _391  and  _392
REMARK  144  A    between atoms: _391  and  _394
REMARK  145  A    between atoms: _394  and  _395
REMARK  146  A    between atoms: _405  and  _407
REMARK  147  A    between atoms: _407  and  _408
REMARK  148  A    between atoms: _407  and  _410
REMARK  149  A    between atoms: _410  and  _411
REMARK  150  A    between atoms: _416  and  _418
REMARK  151  A    between atoms: _418  and  _419
REMARK  152  A    between atoms: _418  and  _421
REMARK  153  A    between atoms: _421  and  _422
REMARK  154  A    between atoms: _422  and  _423
REMARK  155  A    between atoms: _423  and  _424
REMARK                            x       y       z     vdW  Elec       q    Type
REMARK                         _______ _______ _______ _____ _____    ______ ____
ROOT
ATOM      1  O   HOH     1      -5.137   1.474  10.771  0.00  0.00    +0.000 OA
ENDROOT
TORSDOF 0
REMARK  Name = ../refined-set-2016/1g45/1g45_pocket.pdb
REMARK  155 active torsions:
REMARK  status: ('A' for Active; 'I' for Inactive)
REMARK    1  A    between atoms: _1  and  _3
REMARK    2  A    between atoms: _3  and  _4
REMARK    3  A    between atoms: _3  and  _6
REMARK    4  A    between atoms: _6  and  _7
REMARK    5  A    between atoms: _12  and  _14
REMARK    6  A    between atoms: _14  and  _15
REMARK    7  A    between atoms: _14  and  _17
REMARK    8  A    between atoms: _17  and  _18
REMARK    9  A    between atoms: _28  and  _30
REMARK   10  A    between atoms: _30  and  _31
REMARK   11  A    between atoms: _30  and  _33
REMARK   12  A    between atoms: _33  and  _34
REMARK   13  A    between atoms: _39  and  _40
REMARK   14  A    between atoms: _42  and  _44
REMARK   15  A    between atoms: _44  and  _45
REMARK   16  A    between atoms: _44  and  _47
REMARK   17  A    between atoms: _47  and  _48
REMARK   18  A    between atoms: _51  and  _52
REMARK   19  A    between atoms: _57  and  _59
REMARK   20  A    between atoms: _59  and  _60
REMARK   21  A    between atoms: _59  and  _62
REMARK   22  A    between atoms: _62  and  _63
REMARK   23  A    between atoms: _68  and  _70
REMARK   24  A    between atoms: _70  and  _71
REMARK   25  A    between atoms: _74  and  _76
REMARK   26  A    between atoms: _76  and  _77
REMARK   27  A    between atoms: _76  and  _79
REMARK   28  A    between atoms: _79  and  _80
REMARK   29  A    between atoms: _85  and  _87
REMARK   30  A    between atoms: _87  and  _88
REMARK   31  A    between atoms: _87  and  _90
REMARK   32  A    between atoms: _90  and  _91
REMARK   33  A    between atoms: _94  and  _96
REMARK   34  A    between atoms: _96  and  _97
REMARK   35  A    between atoms: _96  and  _99
REMARK   36  A    between atoms: _99  and  _100
REMARK   37  A    between atoms: _100  and  _101
REMARK   38  A    between atoms: _106  and  _108
REMARK   39  A    between atoms: _108  and  _109
REMARK   40  A    between atoms: _108  and  _111
REMARK   41  A    between atoms: _111  and  _112
REMARK   42  A    between atoms: _118  and  _120
REMARK   43  A    between atoms: _131  and  _134
REMARK   44  A    between atoms: _134  and  _135
REMARK   45  A    between atoms: _143  and  _144
REMARK   46  A    between atoms: _152  and  _154
REMARK   47  A    between atoms: _154  and  _155
REMARK   48  A    between atoms: _154  and  _157
REMARK   49  A    between atoms: _157  and  _158
REMARK   50  A    between atoms: _158  and  _159
REMARK   51  A    between atoms: _162  and  _164
REMARK   52  A    between atoms: _164  and  _165
REMARK   53  A    between atoms: _164  and  _167
REMARK   54  A    between atoms: _167  and  _168
REMARK   55  A    between atoms: _173  and  _175
REMARK   56  A    between atoms: _175  and  _176
REMARK   57  A    between atoms: _175  and  _178
REMARK   58  A    between atoms: _178  and  _179
REMARK   59  A    between atoms: _179  and  _180
REMARK   60  A    between atoms: _183  and  _185
REMARK   61  A    between atoms: _185  and  _186
REMARK   62  A    between atoms: _185  and  _188
REMARK   63  A    between atoms: _188  and  _189
REMARK   64  A    between atoms: _192  and  _194
REMARK   65  A    between atoms: _194  and  _195
REMARK   66  A    between atoms: _194  and  _197
REMARK   67  A    between atoms: _197  and  _198
REMARK   68  A    between atoms: _199  and  ZN_433
REMARK   69  A    between atoms: _203  and  _205
REMARK   70  A    between atoms: _205  and  _206
REMARK   71  A    between atoms: _205  and  _208
REMARK   72  A    between atoms: _208  and  _209
REMARK   73  A    between atoms: _212  and  _214
REMARK   74  A    between atoms: _214  and  _215
REMARK   75  A    between atoms: _214  and  _217
REMARK   76  A    between atoms: _220  and  _222
REMARK   77  A    between atoms: _222  and  _223
REMARK   78  A    between atoms: _222  and  _225
REMARK   79  A    between atoms: _225  and  _226
REMARK   80  A    between atoms: _231  and  _233
REMARK   81  A    between atoms: _233  and  _234
REMARK   82  A    between atoms: _233  and  _236
REMARK   83  A    between atoms: _239  and  _241
REMARK   84  A    between atoms: _241  and  _242
REMARK   85  A    between atoms: _244  and  _246
REMARK   86  A    between atoms: _246  and  _247
REMARK   87  A    between atoms: _250  and  _252
REMARK   88  A    between atoms: _252  and  _253
REMARK   89  A    between atoms: _252  and  _255
REMARK   90  A    between atoms: _258  and  _260
REMARK   91  A    between atoms: _260  and  _261
REMARK   92  A    between atoms: _260  and  _263
REMARK   93  A    between atoms: _263  and  _264
REMARK   94  A    between atoms: _264  and  _265
REMARK   95  A    between atoms: _270  and  _272
REMARK   96  A    between atoms: _272  and  _273
REMARK   97  A    between atoms: _272  and  _275
REMARK   98  A    between atoms: _275  and  _276
REMARK   99  A    between atoms: _279  and  _281
REMARK  100  A    between atoms: _281  and  _282
REMARK  101  A    between atoms: _285  and  _287
REMARK  102  A    between atoms: _287  and  _288
REMARK  103  A    between atoms: _287  and  _290
REMARK  104  A    between atoms: _293  and  _295
REMARK  105  A    between atoms: _295  and  _296
REMARK  106  A    between atoms: _295  and  _298
REMARK  107  A    between atoms: _298  and  _299
REMARK  108  A    between atoms: _302  and  _304
REMARK  109  A    between atoms: _304  and  _305
REMARK  110  A    between atoms: _307  and  _309
REMARK  111  A    between atoms: _309  and  _310
REMARK  112  A    between atoms: _309  and  _312
REMARK  113  A    between atoms: _312  and  _313
REMARK  114  A    between atoms: _315  and  _317
REMARK  115  A    between atoms: _317  and  _318
REMARK  116  A    between atoms: _317  and  _320
REMARK  117  A    between atoms: _320  and  _321
REMARK  118  A    between atoms: _324  and  _326
REMARK  119  A    between atoms: _326  and  _327
REMARK  120  A    between atoms: _326  and  _329
REMARK  121  A    between atoms: _329  and  _330
REMARK  122  A    between atoms: _333  and  _335
REMARK  123  A    between atoms: _335  and  _336
REMARK  124  A    between atoms: _335  and  _338
REMARK  125  A    between atoms: _338  and  _339
REMARK  126  A    between atoms: _343  and  _344
REMARK  127  A    between atoms: _350  and  _351
REMARK  128  A    between atoms: _356  and  _358
REMARK  129  A    between atoms: _358  and  _359
REMARK  130  A    between atoms: _358  and  _361
REMARK  131  A    between atoms: _361  and  _362
REMARK  132  A    between atoms: _365  and  _367
REMARK  133  A    between atoms: _367  and  _368
REMARK  134  A    between atoms: _367  and  _370
REMARK  135  A    between atoms: _370  and  _371
REMARK  136  A    between atoms: _374  and  _376
REMARK  137  A    between atoms: _376  and  _377
REMARK  138  A    between atoms: _376  and  _379
REMARK  139  A    between atoms: _381  and  _383
REMARK  140  A    between atoms: _383  and  _384
REMARK  141  A    between atoms: _383  and  _386
REMARK  142  A    between atoms: _389  and  _391
REMARK  143  A    between atoms: _391  and  _392
REMARK  144  A    between atoms: _391  and  _394
REMARK  145  A    between atoms: _394  and  _395
REMARK  146  A    between atoms: _405  and  _407
REMARK  147  A    between atoms: _407  and  _408
REMARK  148  A    between atoms: _407  and  _410
REMARK  149  A    between atoms: _410  and  _411
REMARK  150  A    between atoms: _416  and  _418
REMARK  151  A    between atoms: _418  and  _419
REMARK  152  A    between atoms: _418  and  _421
REMARK  153  A    between atoms: _421  and  _422
REMARK  154  A    between atoms: _422  and  _423
REMARK  155  A    between atoms: _423  and  _424
REMARK                            x       y       z     vdW  Elec       q    Type
REMARK                         _______ _______ _______ _____ _____    ______ ____
ROOT
ATOM      1  O   HOH     1       2.615   4.001   8.529  0.00  0.00    +0.000 OA
ENDROOT
TORSDOF 0
REMARK  Name = ../refined-set-2016/1g45/1g45_pocket.pdb
REMARK  155 active torsions:
REMARK  status: ('A' for Active; 'I' for Inactive)
REMARK    1  A    between atoms: _1  and  _3
REMARK    2  A    between atoms: _3  and  _4
REMARK    3  A    between atoms: _3  and  _6
REMARK    4  A    between atoms: _6  and  _7
REMARK    5  A    between atoms: _12  and  _14
REMARK    6  A    between atoms: _14  and  _15
REMARK    7  A    between atoms: _14  and  _17
REMARK    8  A    between atoms: _17  and  _18
REMARK    9  A    between atoms: _28  and  _30
REMARK   10  A    between atoms: _30  and  _31
REMARK   11  A    between atoms: _30  and  _33
REMARK   12  A    between atoms: _33  and  _34
REMARK   13  A    between atoms: _39  and  _40
REMARK   14  A    between atoms: _42  and  _44
REMARK   15  A    between atoms: _44  and  _45
REMARK   16  A    between atoms: _44  and  _47
REMARK   17  A    between atoms: _47  and  _48
REMARK   18  A    between atoms: _51  and  _52
REMARK   19  A    between atoms: _57  and  _59
REMARK   20  A    between atoms: _59  and  _60
REMARK   21  A    between atoms: _59  and  _62
REMARK   22  A    between atoms: _62  and  _63
REMARK   23  A    between atoms: _68  and  _70
REMARK   24  A    between atoms: _70  and  _71
REMARK   25  A    between atoms: _74  and  _76
REMARK   26  A    between atoms: _76  and  _77
REMARK   27  A    between atoms: _76  and  _79
REMARK   28  A    between atoms: _79  and  _80
REMARK   29  A    between atoms: _85  and  _87
REMARK   30  A    between atoms: _87  and  _88
REMARK   31  A    between atoms: _87  and  _90
REMARK   32  A    between atoms: _90  and  _91
REMARK   33  A    between atoms: _94  and  _96
REMARK   34  A    between atoms: _96  and  _97
REMARK   35  A    between atoms: _96  and  _99
REMARK   36  A    between atoms: _99  and  _100
REMARK   37  A    between atoms: _100  and  _101
REMARK   38  A    between atoms: _106  and  _108
REMARK   39  A    between atoms: _108  and  _109
REMARK   40  A    between atoms: _108  and  _111
REMARK   41  A    between atoms: _111  and  _112
REMARK   42  A    between atoms: _118  and  _120
REMARK   43  A    between atoms: _131  and  _134
REMARK   44  A    between atoms: _134  and  _135
REMARK   45  A    between atoms: _143  and  _144
REMARK   46  A    between atoms: _152  and  _154
REMARK   47  A    between atoms: _154  and  _155
REMARK   48  A    between atoms: _154  and  _157
REMARK   49  A    between atoms: _157  and  _158
REMARK   50  A    between atoms: _158  and  _159
REMARK   51  A    between atoms: _162  and  _164
REMARK   52  A    between atoms: _164  and  _165
REMARK   53  A    between atoms: _164  and  _167
REMARK   54  A    between atoms: _167  and  _168
REMARK   55  A    between atoms: _173  and  _175
REMARK   56  A    between atoms: _175  and  _176
REMARK   57  A    between atoms: _175  and  _178
REMARK   58  A    between atoms: _178  and  _179
REMARK   59  A    between atoms: _179  and  _180
REMARK   60  A    between atoms: _183  and  _185
REMARK   61  A    between atoms: _185  and  _186
REMARK   62  A    between atoms: _185  and  _188
REMARK   63  A    between atoms: _188  and  _189
REMARK   64  A    between atoms: _192  and  _194
REMARK   65  A    between atoms: _194  and  _195
REMARK   66  A    between atoms: _194  and  _197
REMARK   67  A    between atoms: _197  and  _198
REMARK   68  A    between atoms: _199  and  ZN_433
REMARK   69  A    between atoms: _203  and  _205
REMARK   70  A    between atoms: _205  and  _206
REMARK   71  A    between atoms: _205  and  _208
REMARK   72  A    between atoms: _208  and  _209
REMARK   73  A    between atoms: _212  and  _214
REMARK   74  A    between atoms: _214  and  _215
REMARK   75  A    between atoms: _214  and  _217
REMARK   76  A    between atoms: _220  and  _222
REMARK   77  A    between atoms: _222  and  _223
REMARK   78  A    between atoms: _222  and  _225
REMARK   79  A    between atoms: _225  and  _226
REMARK   80  A    between atoms: _231  and  _233
REMARK   81  A    between atoms: _233  and  _234
REMARK   82  A    between atoms: _233  and  _236
REMARK   83  A    between atoms: _239  and  _241
REMARK   84  A    between atoms: _241  and  _242
REMARK   85  A    between atoms: _244  and  _246
REMARK   86  A    between atoms: _246  and  _247
REMARK   87  A    between atoms: _250  and  _252
REMARK   88  A    between atoms: _252  and  _253
REMARK   89  A    between atoms: _252  and  _255
REMARK   90  A    between atoms: _258  and  _260
REMARK   91  A    between atoms: _260  and  _261
REMARK   92  A    between atoms: _260  and  _263
REMARK   93  A    between atoms: _263  and  _264
REMARK   94  A    between atoms: _264  and  _265
REMARK   95  A    between atoms: _270  and  _272
REMARK   96  A    between atoms: _272  and  _273
REMARK   97  A    between atoms: _272  and  _275
REMARK   98  A    between atoms: _275  and  _276
REMARK   99  A    between atoms: _279  and  _281
REMARK  100  A    between atoms: _281  and  _282
REMARK  101  A    between atoms: _285  and  _287
REMARK  102  A    between atoms: _287  and  _288
REMARK  103  A    between atoms: _287  and  _290
REMARK  104  A    between atoms: _293  and  _295
REMARK  105  A    between atoms: _295  and  _296
REMARK  106  A    between atoms: _295  and  _298
REMARK  107  A    between atoms: _298  and  _299
REMARK  108  A    between atoms: _302  and  _304
REMARK  109  A    between atoms: _304  and  _305
REMARK  110  A    between atoms: _307  and  _309
REMARK  111  A    between atoms: _309  and  _310
REMARK  112  A    between atoms: _309  and  _312
REMARK  113  A    between atoms: _312  and  _313
REMARK  114  A    between atoms: _315  and  _317
REMARK  115  A    between atoms: _317  and  _318
REMARK  116  A    between atoms: _317  and  _320
REMARK  117  A    between atoms: _320  and  _321
REMARK  118  A    between atoms: _324  and  _326
REMARK  119  A    between atoms: _326  and  _327
REMARK  120  A    between atoms: _326  and  _329
REMARK  121  A    between atoms: _329  and  _330
REMARK  122  A    between atoms: _333  and  _335
REMARK  123  A    between atoms: _335  and  _336
REMARK  124  A    between atoms: _335  and  _338
REMARK  125  A    between atoms: _338  and  _339
REMARK  126  A    between atoms: _343  and  _344
REMARK  127  A    between atoms: _350  and  _351
REMARK  128  A    between atoms: _356  and  _358
REMARK  129  A    between atoms: _358  and  _359
REMARK  130  A    between atoms: _358  and  _361
REMARK  131  A    between atoms: _361  and  _362
REMARK  132  A    between atoms: _365  and  _367
REMARK  133  A    between atoms: _367  and  _368
REMARK  134  A    between atoms: _367  and  _370
REMARK  135  A    between atoms: _370  and  _371
REMARK  136  A    between atoms: _374  and  _376
REMARK  137  A    between atoms: _376  and  _377
REMARK  138  A    between atoms: _376  and  _379
REMARK  139  A    between atoms: _381  and  _383
REMARK  140  A    between atoms: _383  and  _384
REMARK  141  A    between atoms: _383  and  _386
REMARK  142  A    between atoms: _389  and  _391
REMARK  143  A    between atoms: _391  and  _392
REMARK  144  A    between atoms: _391  and  _394
REMARK  145  A    between atoms: _394  and  _395
REMARK  146  A    between atoms: _405  and  _407
REMARK  147  A    between atoms: _407  and  _408
REMARK  148  A    between atoms: _407  and  _410
REMARK  149  A    between atoms: _410  and  _411
REMARK  150  A    between atoms: _416  and  _418
REMARK  151  A    between atoms: _418  and  _419
REMARK  152  A    between atoms: _418  and  _421
REMARK  153  A    between atoms: _421  and  _422
REMARK  154  A    between atoms: _422  and  _423
REMARK  155  A    between atoms: _423  and  _424
REMARK                            x       y       z     vdW  Elec       q    Type
REMARK                         _______ _______ _______ _____ _____    ______ ____
ROOT
ATOM      1  O   HOH     1      -4.123  -0.796  11.522  0.00  0.00    +0.000 OA
ENDROOT
TORSDOF 0
REMARK  Name = ../refined-set-2016/1g45/1g45_pocket.pdb
REMARK  155 active torsions:
REMARK  status: ('A' for Active; 'I' for Inactive)
REMARK    1  A    between atoms: _1  and  _3
REMARK    2  A    between atoms: _3  and  _4
REMARK    3  A    between atoms: _3  and  _6
REMARK    4  A    between atoms: _6  and  _7
REMARK    5  A    between atoms: _12  and  _14
REMARK    6  A    between atoms: _14  and  _15
REMARK    7  A    between atoms: _14  and  _17
REMARK    8  A    between atoms: _17  and  _18
REMARK    9  A    between atoms: _28  and  _30
REMARK   10  A    between atoms: _30  and  _31
REMARK   11  A    between atoms: _30  and  _33
REMARK   12  A    between atoms: _33  and  _34
REMARK   13  A    between atoms: _39  and  _40
REMARK   14  A    between atoms: _42  and  _44
REMARK   15  A    between atoms: _44  and  _45
REMARK   16  A    between atoms: _44  and  _47
REMARK   17  A    between atoms: _47  and  _48
REMARK   18  A    between atoms: _51  and  _52
REMARK   19  A    between atoms: _57  and  _59
REMARK   20  A    between atoms: _59  and  _60
REMARK   21  A    between atoms: _59  and  _62
REMARK   22  A    between atoms: _62  and  _63
REMARK   23  A    between atoms: _68  and  _70
REMARK   24  A    between atoms: _70  and  _71
REMARK   25  A    between atoms: _74  and  _76
REMARK   26  A    between atoms: _76  and  _77
REMARK   27  A    between atoms: _76  and  _79
REMARK   28  A    between atoms: _79  and  _80
REMARK   29  A    between atoms: _85  and  _87
REMARK   30  A    between atoms: _87  and  _88
REMARK   31  A    between atoms: _87  and  _90
REMARK   32  A    between atoms: _90  and  _91
REMARK   33  A    between atoms: _94  and  _96
REMARK   34  A    between atoms: _96  and  _97
REMARK   35  A    between atoms: _96  and  _99
REMARK   36  A    between atoms: _99  and  _100
REMARK   37  A    between atoms: _100  and  _101
REMARK   38  A    between atoms: _106  and  _108
REMARK   39  A    between atoms: _108  and  _109
REMARK   40  A    between atoms: _108  and  _111
REMARK   41  A    between atoms: _111  and  _112
REMARK   42  A    between atoms: _118  and  _120
REMARK   43  A    between atoms: _131  and  _134
REMARK   44  A    between atoms: _134  and  _135
REMARK   45  A    between atoms: _143  and  _144
REMARK   46  A    between atoms: _152  and  _154
REMARK   47  A    between atoms: _154  and  _155
REMARK   48  A    between atoms: _154  and  _157
REMARK   49  A    between atoms: _157  and  _158
REMARK   50  A    between atoms: _158  and  _159
REMARK   51  A    between atoms: _162  and  _164
REMARK   52  A    between atoms: _164  and  _165
REMARK   53  A    between atoms: _164  and  _167
REMARK   54  A    between atoms: _167  and  _168
REMARK   55  A    between atoms: _173  and  _175
REMARK   56  A    between atoms: _175  and  _176
REMARK   57  A    between atoms: _175  and  _178
REMARK   58  A    between atoms: _178  and  _179
REMARK   59  A    between atoms: _179  and  _180
REMARK   60  A    between atoms: _183  and  _185
REMARK   61  A    between atoms: _185  and  _186
REMARK   62  A    between atoms: _185  and  _188
REMARK   63  A    between atoms: _188  and  _189
REMARK   64  A    between atoms: _192  and  _194
REMARK   65  A    between atoms: _194  and  _195
REMARK   66  A    between atoms: _194  and  _197
REMARK   67  A    between atoms: _197  and  _198
REMARK   68  A    between atoms: _199  and  ZN_433
REMARK   69  A    between atoms: _203  and  _205
REMARK   70  A    between atoms: _205  and  _206
REMARK   71  A    between atoms: _205  and  _208
REMARK   72  A    between atoms: _208  and  _209
REMARK   73  A    between atoms: _212  and  _214
REMARK   74  A    between atoms: _214  and  _215
REMARK   75  A    between atoms: _214  and  _217
REMARK   76  A    between atoms: _220  and  _222
REMARK   77  A    between atoms: _222  and  _223
REMARK   78  A    between atoms: _222  and  _225
REMARK   79  A    between atoms: _225  and  _226
REMARK   80  A    between atoms: _231  and  _233
REMARK   81  A    between atoms: _233  and  _234
REMARK   82  A    between atoms: _233  and  _236
REMARK   83  A    between atoms: _239  and  _241
REMARK   84  A    between atoms: _241  and  _242
REMARK   85  A    between atoms: _244  and  _246
REMARK   86  A    between atoms: _246  and  _247
REMARK   87  A    between atoms: _250  and  _252
REMARK   88  A    between atoms: _252  and  _253
REMARK   89  A    between atoms: _252  and  _255
REMARK   90  A    between atoms: _258  and  _260
REMARK   91  A    between atoms: _260  and  _261
REMARK   92  A    between atoms: _260  and  _263
REMARK   93  A    between atoms: _263  and  _264
REMARK   94  A    between atoms: _264  and  _265
REMARK   95  A    between atoms: _270  and  _272
REMARK   96  A    between atoms: _272  and  _273
REMARK   97  A    between atoms: _272  and  _275
REMARK   98  A    between atoms: _275  and  _276
REMARK   99  A    between atoms: _279  and  _281
REMARK  100  A    between atoms: _281  and  _282
REMARK  101  A    between atoms: _285  and  _287
REMARK  102  A    between atoms: _287  and  _288
REMARK  103  A    between atoms: _287  and  _290
REMARK  104  A    between atoms: _293  and  _295
REMARK  105  A    between atoms: _295  and  _296
REMARK  106  A    between atoms: _295  and  _298
REMARK  107  A    between atoms: _298  and  _299
REMARK  108  A    between atoms: _302  and  _304
REMARK  109  A    between atoms: _304  and  _305
REMARK  110  A    between atoms: _307  and  _309
REMARK  111  A    between atoms: _309  and  _310
REMARK  112  A    between atoms: _309  and  _312
REMARK  113  A    between atoms: _312  and  _313
REMARK  114  A    between atoms: _315  and  _317
REMARK  115  A    between atoms: _317  and  _318
REMARK  116  A    between atoms: _317  and  _320
REMARK  117  A    between atoms: _320  and  _321
REMARK  118  A    between atoms: _324  and  _326
REMARK  119  A    between atoms: _326  and  _327
REMARK  120  A    between atoms: _326  and  _329
REMARK  121  A    between atoms: _329  and  _330
REMARK  122  A    between atoms: _333  and  _335
REMARK  123  A    between atoms: _335  and  _336
REMARK  124  A    between atoms: _335  and  _338
REMARK  125  A    between atoms: _338  and  _339
REMARK  126  A    between atoms: _343  and  _344
REMARK  127  A    between atoms: _350  and  _351
REMARK  128  A    between atoms: _356  and  _358
REMARK  129  A    between atoms: _358  and  _359
REMARK  130  A    between atoms: _358  and  _361
REMARK  131  A    between atoms: _361  and  _362
REMARK  132  A    between atoms: _365  and  _367
REMARK  133  A    between atoms: _367  and  _368
REMARK  134  A    between atoms: _367  and  _370
REMARK  135  A    between atoms: _370  and  _371
REMARK  136  A    between atoms: _374  and  _376
REMARK  137  A    between atoms: _376  and  _377
REMARK  138  A    between atoms: _376  and  _379
REMARK  139  A    between atoms: _381  and  _383
REMARK  140  A    between atoms: _383  and  _384
REMARK  141  A    between atoms: _383  and  _386
REMARK  142  A    between atoms: _389  and  _391
REMARK  143  A    between atoms: _391  and  _392
REMARK  144  A    between atoms: _391  and  _394
REMARK  145  A    between atoms: _394  and  _395
REMARK  146  A    between atoms: _405  and  _407
REMARK  147  A    between atoms: _407  and  _408
REMARK  148  A    between atoms: _407  and  _410
REMARK  149  A    between atoms: _410  and  _411
REMARK  150  A    between atoms: _416  and  _418
REMARK  151  A    between atoms: _418  and  _419
REMARK  152  A    between atoms: _418  and  _421
REMARK  153  A    between atoms: _421  and  _422
REMARK  154  A    between atoms: _422  and  _423
REMARK  155  A    between atoms: _423  and  _424
REMARK                            x       y       z     vdW  Elec       q    Type
REMARK                         _______ _______ _______ _____ _____    ______ ____
ROOT
ATOM      1  O   HOH     1      -1.393  -4.053  15.952  0.00  0.00    +0.000 OA
ENDROOT
TORSDOF 0
REMARK  Name = ../refined-set-2016/1g45/1g45_pocket.pdb
REMARK  155 active torsions:
REMARK  status: ('A' for Active; 'I' for Inactive)
REMARK    1  A    between atoms: _1  and  _3
REMARK    2  A    between atoms: _3  and  _4
REMARK    3  A    between atoms: _3  and  _6
REMARK    4  A    between atoms: _6  and  _7
REMARK    5  A    between atoms: _12  and  _14
REMARK    6  A    between atoms: _14  and  _15
REMARK    7  A    between atoms: _14  and  _17
REMARK    8  A    between atoms: _17  and  _18
REMARK    9  A    between atoms: _28  and  _30
REMARK   10  A    between atoms: _30  and  _31
REMARK   11  A    between atoms: _30  and  _33
REMARK   12  A    between atoms: _33  and  _34
REMARK   13  A    between atoms: _39  and  _40
REMARK   14  A    between atoms: _42  and  _44
REMARK   15  A    between atoms: _44  and  _45
REMARK   16  A    between atoms: _44  and  _47
REMARK   17  A    between atoms: _47  and  _48
REMARK   18  A    between atoms: _51  and  _52
REMARK   19  A    between atoms: _57  and  _59
REMARK   20  A    between atoms: _59  and  _60
REMARK   21  A    between atoms: _59  and  _62
REMARK   22  A    between atoms: _62  and  _63
REMARK   23  A    between atoms: _68  and  _70
REMARK   24  A    between atoms: _70  and  _71
REMARK   25  A    between atoms: _74  and  _76
REMARK   26  A    between atoms: _76  and  _77
REMARK   27  A    between atoms: _76  and  _79
REMARK   28  A    between atoms: _79  and  _80
REMARK   29  A    between atoms: _85  and  _87
REMARK   30  A    between atoms: _87  and  _88
REMARK   31  A    between atoms: _87  and  _90
REMARK   32  A    between atoms: _90  and  _91
REMARK   33  A    between atoms: _94  and  _96
REMARK   34  A    between atoms: _96  and  _97
REMARK   35  A    between atoms: _96  and  _99
REMARK   36  A    between atoms: _99  and  _100
REMARK   37  A    between atoms: _100  and  _101
REMARK   38  A    between atoms: _106  and  _108
REMARK   39  A    between atoms: _108  and  _109
REMARK   40  A    between atoms: _108  and  _111
REMARK   41  A    between atoms: _111  and  _112
REMARK   42  A    between atoms: _118  and  _120
REMARK   43  A    between atoms: _131  and  _134
REMARK   44  A    between atoms: _134  and  _135
REMARK   45  A    between atoms: _143  and  _144
REMARK   46  A    between atoms: _152  and  _154
REMARK   47  A    between atoms: _154  and  _155
REMARK   48  A    between atoms: _154  and  _157
REMARK   49  A    between atoms: _157  and  _158
REMARK   50  A    between atoms: _158  and  _159
REMARK   51  A    between atoms: _162  and  _164
REMARK   52  A    between atoms: _164  and  _165
REMARK   53  A    between atoms: _164  and  _167
REMARK   54  A    between atoms: _167  and  _168
REMARK   55  A    between atoms: _173  and  _175
REMARK   56  A    between atoms: _175  and  _176
REMARK   57  A    between atoms: _175  and  _178
REMARK   58  A    between atoms: _178  and  _179
REMARK   59  A    between atoms: _179  and  _180
REMARK   60  A    between atoms: _183  and  _185
REMARK   61  A    between atoms: _185  and  _186
REMARK   62  A    between atoms: _185  and  _188
REMARK   63  A    between atoms: _188  and  _189
REMARK   64  A    between atoms: _192  and  _194
REMARK   65  A    between atoms: _194  and  _195
REMARK   66  A    between atoms: _194  and  _197
REMARK   67  A    between atoms: _197  and  _198
REMARK   68  A    between atoms: _199  and  ZN_433
REMARK   69  A    between atoms: _203  and  _205
REMARK   70  A    between atoms: _205  and  _206
REMARK   71  A    between atoms: _205  and  _208
REMARK   72  A    between atoms: _208  and  _209
REMARK   73  A    between atoms: _212  and  _214
REMARK   74  A    between atoms: _214  and  _215
REMARK   75  A    between atoms: _214  and  _217
REMARK   76  A    between atoms: _220  and  _222
REMARK   77  A    between atoms: _222  and  _223
REMARK   78  A    between atoms: _222  and  _225
REMARK   79  A    between atoms: _225  and  _226
REMARK   80  A    between atoms: _231  and  _233
REMARK   81  A    between atoms: _233  and  _234
REMARK   82  A    between atoms: _233  and  _236
REMARK   83  A    between atoms: _239  and  _241
REMARK   84  A    between atoms: _241  and  _242
REMARK   85  A    between atoms: _244  and  _246
REMARK   86  A    between atoms: _246  and  _247
REMARK   87  A    between atoms: _250  and  _252
REMARK   88  A    between atoms: _252  and  _253
REMARK   89  A    between atoms: _252  and  _255
REMARK   90  A    between atoms: _258  and  _260
REMARK   91  A    between atoms: _260  and  _261
REMARK   92  A    between atoms: _260  and  _263
REMARK   93  A    between atoms: _263  and  _264
REMARK   94  A    between atoms: _264  and  _265
REMARK   95  A    between atoms: _270  and  _272
REMARK   96  A    between atoms: _272  and  _273
REMARK   97  A    between atoms: _272  and  _275
REMARK   98  A    between atoms: _275  and  _276
REMARK   99  A    between atoms: _279  and  _281
REMARK  100  A    between atoms: _281  and  _282
REMARK  101  A    between atoms: _285  and  _287
REMARK  102  A    between atoms: _287  and  _288
REMARK  103  A    between atoms: _287  and  _290
REMARK  104  A    between atoms: _293  and  _295
REMARK  105  A    between atoms: _295  and  _296
REMARK  106  A    between atoms: _295  and  _298
REMARK  107  A    between atoms: _298  and  _299
REMARK  108  A    between atoms: _302  and  _304
REMARK  109  A    between atoms: _304  and  _305
REMARK  110  A    between atoms: _307  and  _309
REMARK  111  A    between atoms: _309  and  _310
REMARK  112  A    between atoms: _309  and  _312
REMARK  113  A    between atoms: _312  and  _313
REMARK  114  A    between atoms: _315  and  _317
REMARK  115  A    between atoms: _317  and  _318
REMARK  116  A    between atoms: _317  and  _320
REMARK  117  A    between atoms: _320  and  _321
REMARK  118  A    between atoms: _324  and  _326
REMARK  119  A    between atoms: _326  and  _327
REMARK  120  A    between atoms: _326  and  _329
REMARK  121  A    between atoms: _329  and  _330
REMARK  122  A    between atoms: _333  and  _335
REMARK  123  A    between atoms: _335  and  _336
REMARK  124  A    between atoms: _335  and  _338
REMARK  125  A    between atoms: _338  and  _339
REMARK  126  A    between atoms: _343  and  _344
REMARK  127  A    between atoms: _350  and  _351
REMARK  128  A    between atoms: _356  and  _358
REMARK  129  A    between atoms: _358  and  _359
REMARK  130  A    between atoms: _358  and  _361
REMARK  131  A    between atoms: _361  and  _362
REMARK  132  A    between atoms: _365  and  _367
REMARK  133  A    between atoms: _367  and  _368
REMARK  134  A    between atoms: _367  and  _370
REMARK  135  A    between atoms: _370  and  _371
REMARK  136  A    between atoms: _374  and  _376
REMARK  137  A    between atoms: _376  and  _377
REMARK  138  A    between atoms: _376  and  _379
REMARK  139  A    between atoms: _381  and  _383
REMARK  140  A    between atoms: _383  and  _384
REMARK  141  A    between atoms: _383  and  _386
REMARK  142  A    between atoms: _389  and  _391
REMARK  143  A    between atoms: _391  and  _392
REMARK  144  A    between atoms: _391  and  _394
REMARK  145  A    between atoms: _394  and  _395
REMARK  146  A    between atoms: _405  and  _407
REMARK  147  A    between atoms: _407  and  _408
REMARK  148  A    between atoms: _407  and  _410
REMARK  149  A    between atoms: _410  and  _411
REMARK  150  A    between atoms: _416  and  _418
REMARK  151  A    between atoms: _418  and  _419
REMARK  152  A    between atoms: _418  and  _421
REMARK  153  A    between atoms: _421  and  _422
REMARK  154  A    between atoms: _422  and  _423
REMARK  155  A    between atoms: _423  and  _424
REMARK                            x       y       z     vdW  Elec       q    Type
REMARK                         _______ _______ _______ _____ _____    ______ ____
ROOT
ATOM      1  O   HOH     1      -2.776   8.415  18.970  0.00  0.00    +0.000 OA
ENDROOT
TORSDOF 0
REMARK  Name = ../refined-set-2016/1g45/1g45_pocket.pdb
REMARK  155 active torsions:
REMARK  status: ('A' for Active; 'I' for Inactive)
REMARK    1  A    between atoms: _1  and  _3
REMARK    2  A    between atoms: _3  and  _4
REMARK    3  A    between atoms: _3  and  _6
REMARK    4  A    between atoms: _6  and  _7
REMARK    5  A    between atoms: _12  and  _14
REMARK    6  A    between atoms: _14  and  _15
REMARK    7  A    between atoms: _14  and  _17
REMARK    8  A    between atoms: _17  and  _18
REMARK    9  A    between atoms: _28  and  _30
REMARK   10  A    between atoms: _30  and  _31
REMARK   11  A    between atoms: _30  and  _33
REMARK   12  A    between atoms: _33  and  _34
REMARK   13  A    between atoms: _39  and  _40
REMARK   14  A    between atoms: _42  and  _44
REMARK   15  A    between atoms: _44  and  _45
REMARK   16  A    between atoms: _44  and  _47
REMARK   17  A    between atoms: _47  and  _48
REMARK   18  A    between atoms: _51  and  _52
REMARK   19  A    between atoms: _57  and  _59
REMARK   20  A    between atoms: _59  and  _60
REMARK   21  A    between atoms: _59  and  _62
REMARK   22  A    between atoms: _62  and  _63
REMARK   23  A    between atoms: _68  and  _70
REMARK   24  A    between atoms: _70  and  _71
REMARK   25  A    between atoms: _74  and  _76
REMARK   26  A    between atoms: _76  and  _77
REMARK   27  A    between atoms: _76  and  _79
REMARK   28  A    between atoms: _79  and  _80
REMARK   29  A    between atoms: _85  and  _87
REMARK   30  A    between atoms: _87  and  _88
REMARK   31  A    between atoms: _87  and  _90
REMARK   32  A    between atoms: _90  and  _91
REMARK   33  A    between atoms: _94  and  _96
REMARK   34  A    between atoms: _96  and  _97
REMARK   35  A    between atoms: _96  and  _99
REMARK   36  A    between atoms: _99  and  _100
REMARK   37  A    between atoms: _100  and  _101
REMARK   38  A    between atoms: _106  and  _108
REMARK   39  A    between atoms: _108  and  _109
REMARK   40  A    between atoms: _108  and  _111
REMARK   41  A    between atoms: _111  and  _112
REMARK   42  A    between atoms: _118  and  _120
REMARK   43  A    between atoms: _131  and  _134
REMARK   44  A    between atoms: _134  and  _135
REMARK   45  A    between atoms: _143  and  _144
REMARK   46  A    between atoms: _152  and  _154
REMARK   47  A    between atoms: _154  and  _155
REMARK   48  A    between atoms: _154  and  _157
REMARK   49  A    between atoms: _157  and  _158
REMARK   50  A    between atoms: _158  and  _159
REMARK   51  A    between atoms: _162  and  _164
REMARK   52  A    between atoms: _164  and  _165
REMARK   53  A    between atoms: _164  and  _167
REMARK   54  A    between atoms: _167  and  _168
REMARK   55  A    between atoms: _173  and  _175
REMARK   56  A    between atoms: _175  and  _176
REMARK   57  A    between atoms: _175  and  _178
REMARK   58  A    between atoms: _178  and  _179
REMARK   59  A    between atoms: _179  and  _180
REMARK   60  A    between atoms: _183  and  _185
REMARK   61  A    between atoms: _185  and  _186
REMARK   62  A    between atoms: _185  and  _188
REMARK   63  A    between atoms: _188  and  _189
REMARK   64  A    between atoms: _192  and  _194
REMARK   65  A    between atoms: _194  and  _195
REMARK   66  A    between atoms: _194  and  _197
REMARK   67  A    between atoms: _197  and  _198
REMARK   68  A    between atoms: _199  and  ZN_433
REMARK   69  A    between atoms: _203  and  _205
REMARK   70  A    between atoms: _205  and  _206
REMARK   71  A    between atoms: _205  and  _208
REMARK   72  A    between atoms: _208  and  _209
REMARK   73  A    between atoms: _212  and  _214
REMARK   74  A    between atoms: _214  and  _215
REMARK   75  A    between atoms: _214  and  _217
REMARK   76  A    between atoms: _220  and  _222
REMARK   77  A    between atoms: _222  and  _223
REMARK   78  A    between atoms: _222  and  _225
REMARK   79  A    between atoms: _225  and  _226
REMARK   80  A    between atoms: _231  and  _233
REMARK   81  A    between atoms: _233  and  _234
REMARK   82  A    between atoms: _233  and  _236
REMARK   83  A    between atoms: _239  and  _241
REMARK   84  A    between atoms: _241  and  _242
REMARK   85  A    between atoms: _244  and  _246
REMARK   86  A    between atoms: _246  and  _247
REMARK   87  A    between atoms: _250  and  _252
REMARK   88  A    between atoms: _252  and  _253
REMARK   89  A    between atoms: _252  and  _255
REMARK   90  A    between atoms: _258  and  _260
REMARK   91  A    between atoms: _260  and  _261
REMARK   92  A    between atoms: _260  and  _263
REMARK   93  A    between atoms: _263  and  _264
REMARK   94  A    between atoms: _264  and  _265
REMARK   95  A    between atoms: _270  and  _272
REMARK   96  A    between atoms: _272  and  _273
REMARK   97  A    between atoms: _272  and  _275
REMARK   98  A    between atoms: _275  and  _276
REMARK   99  A    between atoms: _279  and  _281
REMARK  100  A    between atoms: _281  and  _282
REMARK  101  A    between atoms: _285  and  _287
REMARK  102  A    between atoms: _287  and  _288
REMARK  103  A    between atoms: _287  and  _290
REMARK  104  A    between atoms: _293  and  _295
REMARK  105  A    between atoms: _295  and  _296
REMARK  106  A    between atoms: _295  and  _298
REMARK  107  A    between atoms: _298  and  _299
REMARK  108  A    between atoms: _302  and  _304
REMARK  109  A    between atoms: _304  and  _305
REMARK  110  A    between atoms: _307  and  _309
REMARK  111  A    between atoms: _309  and  _310
REMARK  112  A    between atoms: _309  and  _312
REMARK  113  A    between atoms: _312  and  _313
REMARK  114  A    between atoms: _315  and  _317
REMARK  115  A    between atoms: _317  and  _318
REMARK  116  A    between atoms: _317  and  _320
REMARK  117  A    between atoms: _320  and  _321
REMARK  118  A    between atoms: _324  and  _326
REMARK  119  A    between atoms: _326  and  _327
REMARK  120  A    between atoms: _326  and  _329
REMARK  121  A    between atoms: _329  and  _330
REMARK  122  A    between atoms: _333  and  _335
REMARK  123  A    between atoms: _335  and  _336
REMARK  124  A    between atoms: _335  and  _338
REMARK  125  A    between atoms: _338  and  _339
REMARK  126  A    between atoms: _343  and  _344
REMARK  127  A    between atoms: _350  and  _351
REMARK  128  A    between atoms: _356  and  _358
REMARK  129  A    between atoms: _358  and  _359
REMARK  130  A    between atoms: _358  and  _361
REMARK  131  A    between atoms: _361  and  _362
REMARK  132  A    between atoms: _365  and  _367
REMARK  133  A    between atoms: _367  and  _368
REMARK  134  A    between atoms: _367  and  _370
REMARK  135  A    between atoms: _370  and  _371
REMARK  136  A    between atoms: _374  and  _376
REMARK  137  A    between atoms: _376  and  _377
REMARK  138  A    between atoms: _376  and  _379
REMARK  139  A    between atoms: _381  and  _383
REMARK  140  A    between atoms: _383  and  _384
REMARK  141  A    between atoms: _383  and  _386
REMARK  142  A    between atoms: _389  and  _391
REMARK  143  A    between atoms: _391  and  _392
REMARK  144  A    between atoms: _391  and  _394
REMARK  145  A    between atoms: _394  and  _395
REMARK  146  A    between atoms: _405  and  _407
REMARK  147  A    between atoms: _407  and  _408
REMARK  148  A    between atoms: _407  and  _410
REMARK  149  A    between atoms: _410  and  _411
REMARK  150  A    between atoms: _416  and  _418
REMARK  151  A    between atoms: _418  and  _419
REMARK  152  A    between atoms: _418  and  _421
REMARK  153  A    between atoms: _421  and  _422
REMARK  154  A    between atoms: _422  and  _423
REMARK  155  A    between atoms: _423  and  _424
REMARK                            x       y       z     vdW  Elec       q    Type
REMARK                         _______ _______ _______ _____ _____    ______ ____
ROOT
ATOM      1  O   HOH     1      -0.372  -0.303  22.367  0.00  0.00    +0.000 OA
ENDROOT
TORSDOF 0
REMARK  Name = ../refined-set-2016/1g45/1g45_pocket.pdb
REMARK  155 active torsions:
REMARK  status: ('A' for Active; 'I' for Inactive)
REMARK    1  A    between atoms: _1  and  _3
REMARK    2  A    between atoms: _3  and  _4
REMARK    3  A    between atoms: _3  and  _6
REMARK    4  A    between atoms: _6  and  _7
REMARK    5  A    between atoms: _12  and  _14
REMARK    6  A    between atoms: _14  and  _15
REMARK    7  A    between atoms: _14  and  _17
REMARK    8  A    between atoms: _17  and  _18
REMARK    9  A    between atoms: _28  and  _30
REMARK   10  A    between atoms: _30  and  _31
REMARK   11  A    between atoms: _30  and  _33
REMARK   12  A    between atoms: _33  and  _34
REMARK   13  A    between atoms: _39  and  _40
REMARK   14  A    between atoms: _42  and  _44
REMARK   15  A    between atoms: _44  and  _45
REMARK   16  A    between atoms: _44  and  _47
REMARK   17  A    between atoms: _47  and  _48
REMARK   18  A    between atoms: _51  and  _52
REMARK   19  A    between atoms: _57  and  _59
REMARK   20  A    between atoms: _59  and  _60
REMARK   21  A    between atoms: _59  and  _62
REMARK   22  A    between atoms: _62  and  _63
REMARK   23  A    between atoms: _68  and  _70
REMARK   24  A    between atoms: _70  and  _71
REMARK   25  A    between atoms: _74  and  _76
REMARK   26  A    between atoms: _76  and  _77
REMARK   27  A    between atoms: _76  and  _79
REMARK   28  A    between atoms: _79  and  _80
REMARK   29  A    between atoms: _85  and  _87
REMARK   30  A    between atoms: _87  and  _88
REMARK   31  A    between atoms: _87  and  _90
REMARK   32  A    between atoms: _90  and  _91
REMARK   33  A    between atoms: _94  and  _96
REMARK   34  A    between atoms: _96  and  _97
REMARK   35  A    between atoms: _96  and  _99
REMARK   36  A    between atoms: _99  and  _100
REMARK   37  A    between atoms: _100  and  _101
REMARK   38  A    between atoms: _106  and  _108
REMARK   39  A    between atoms: _108  and  _109
REMARK   40  A    between atoms: _108  and  _111
REMARK   41  A    between atoms: _111  and  _112
REMARK   42  A    between atoms: _118  and  _120
REMARK   43  A    between atoms: _131  and  _134
REMARK   44  A    between atoms: _134  and  _135
REMARK   45  A    between atoms: _143  and  _144
REMARK   46  A    between atoms: _152  and  _154
REMARK   47  A    between atoms: _154  and  _155
REMARK   48  A    between atoms: _154  and  _157
REMARK   49  A    between atoms: _157  and  _158
REMARK   50  A    between atoms: _158  and  _159
REMARK   51  A    between atoms: _162  and  _164
REMARK   52  A    between atoms: _164  and  _165
REMARK   53  A    between atoms: _164  and  _167
REMARK   54  A    between atoms: _167  and  _168
REMARK   55  A    between atoms: _173  and  _175
REMARK   56  A    between atoms: _175  and  _176
REMARK   57  A    between atoms: _175  and  _178
REMARK   58  A    between atoms: _178  and  _179
REMARK   59  A    between atoms: _179  and  _180
REMARK   60  A    between atoms: _183  and  _185
REMARK   61  A    between atoms: _185  and  _186
REMARK   62  A    between atoms: _185  and  _188
REMARK   63  A    between atoms: _188  and  _189
REMARK   64  A    between atoms: _192  and  _194
REMARK   65  A    between atoms: _194  and  _195
REMARK   66  A    between atoms: _194  and  _197
REMARK   67  A    between atoms: _197  and  _198
REMARK   68  A    between atoms: _199  and  ZN_433
REMARK   69  A    between atoms: _203  and  _205
REMARK   70  A    between atoms: _205  and  _206
REMARK   71  A    between atoms: _205  and  _208
REMARK   72  A    between atoms: _208  and  _209
REMARK   73  A    between atoms: _212  and  _214
REMARK   74  A    between atoms: _214  and  _215
REMARK   75  A    between atoms: _214  and  _217
REMARK   76  A    between atoms: _220  and  _222
REMARK   77  A    between atoms: _222  and  _223
REMARK   78  A    between atoms: _222  and  _225
REMARK   79  A    between atoms: _225  and  _226
REMARK   80  A    between atoms: _231  and  _233
REMARK   81  A    between atoms: _233  and  _234
REMARK   82  A    between atoms: _233  and  _236
REMARK   83  A    between atoms: _239  and  _241
REMARK   84  A    between atoms: _241  and  _242
REMARK   85  A    between atoms: _244  and  _246
REMARK   86  A    between atoms: _246  and  _247
REMARK   87  A    between atoms: _250  and  _252
REMARK   88  A    between atoms: _252  and  _253
REMARK   89  A    between atoms: _252  and  _255
REMARK   90  A    between atoms: _258  and  _260
REMARK   91  A    between atoms: _260  and  _261
REMARK   92  A    between atoms: _260  and  _263
REMARK   93  A    between atoms: _263  and  _264
REMARK   94  A    between atoms: _264  and  _265
REMARK   95  A    between atoms: _270  and  _272
REMARK   96  A    between atoms: _272  and  _273
REMARK   97  A    between atoms: _272  and  _275
REMARK   98  A    between atoms: _275  and  _276
REMARK   99  A    between atoms: _279  and  _281
REMARK  100  A    between atoms: _281  and  _282
REMARK  101  A    between atoms: _285  and  _287
REMARK  102  A    between atoms: _287  and  _288
REMARK  103  A    between atoms: _287  and  _290
REMARK  104  A    between atoms: _293  and  _295
REMARK  105  A    between atoms: _295  and  _296
REMARK  106  A    between atoms: _295  and  _298
REMARK  107  A    between atoms: _298  and  _299
REMARK  108  A    between atoms: _302  and  _304
REMARK  109  A    between atoms: _304  and  _305
REMARK  110  A    between atoms: _307  and  _309
REMARK  111  A    between atoms: _309  and  _310
REMARK  112  A    between atoms: _309  and  _312
REMARK  113  A    between atoms: _312  and  _313
REMARK  114  A    between atoms: _315  and  _317
REMARK  115  A    between atoms: _317  and  _318
REMARK  116  A    between atoms: _317  and  _320
REMARK  117  A    between atoms: _320  and  _321
REMARK  118  A    between atoms: _324  and  _326
REMARK  119  A    between atoms: _326  and  _327
REMARK  120  A    between atoms: _326  and  _329
REMARK  121  A    between atoms: _329  and  _330
REMARK  122  A    between atoms: _333  and  _335
REMARK  123  A    between atoms: _335  and  _336
REMARK  124  A    between atoms: _335  and  _338
REMARK  125  A    between atoms: _338  and  _339
REMARK  126  A    between atoms: _343  and  _344
REMARK  127  A    between atoms: _350  and  _351
REMARK  128  A    between atoms: _356  and  _358
REMARK  129  A    between atoms: _358  and  _359
REMARK  130  A    between atoms: _358  and  _361
REMARK  131  A    between atoms: _361  and  _362
REMARK  132  A    between atoms: _365  and  _367
REMARK  133  A    between atoms: _367  and  _368
REMARK  134  A    between atoms: _367  and  _370
REMARK  135  A    between atoms: _370  and  _371
REMARK  136  A    between atoms: _374  and  _376
REMARK  137  A    between atoms: _376  and  _377
REMARK  138  A    between atoms: _376  and  _379
REMARK  139  A    between atoms: _381  and  _383
REMARK  140  A    between atoms: _383  and  _384
REMARK  141  A    between atoms: _383  and  _386
REMARK  142  A    between atoms: _389  and  _391
REMARK  143  A    between atoms: _391  and  _392
REMARK  144  A    between atoms: _391  and  _394
REMARK  145  A    between atoms: _394  and  _395
REMARK  146  A    between atoms: _405  and  _407
REMARK  147  A    between atoms: _407  and  _408
REMARK  148  A    between atoms: _407  and  _410
REMARK  149  A    between atoms: _410  and  _411
REMARK  150  A    between atoms: _416  and  _418
REMARK  151  A    between atoms: _418  and  _419
REMARK  152  A    between atoms: _418  and  _421
REMARK  153  A    between atoms: _421  and  _422
REMARK  154  A    between atoms: _422  and  _423
REMARK  155  A    between atoms: _423  and  _424
REMARK                            x       y       z     vdW  Elec       q    Type
REMARK                         _______ _______ _______ _____ _____    ______ ____
ROOT
ATOM      1  O   HOH     1      -5.193  11.813   9.723  0.00  0.00    +0.000 OA
ENDROOT
TORSDOF 0
REMARK  Name = ../refined-set-2016/1g45/1g45_pocket.pdb
REMARK  155 active torsions:
REMARK  status: ('A' for Active; 'I' for Inactive)
REMARK    1  A    between atoms: _1  and  _3
REMARK    2  A    between atoms: _3  and  _4
REMARK    3  A    between atoms: _3  and  _6
REMARK    4  A    between atoms: _6  and  _7
REMARK    5  A    between atoms: _12  and  _14
REMARK    6  A    between atoms: _14  and  _15
REMARK    7  A    between atoms: _14  and  _17
REMARK    8  A    between atoms: _17  and  _18
REMARK    9  A    between atoms: _28  and  _30
REMARK   10  A    between atoms: _30  and  _31
REMARK   11  A    between atoms: _30  and  _33
REMARK   12  A    between atoms: _33  and  _34
REMARK   13  A    between atoms: _39  and  _40
REMARK   14  A    between atoms: _42  and  _44
REMARK   15  A    between atoms: _44  and  _45
REMARK   16  A    between atoms: _44  and  _47
REMARK   17  A    between atoms: _47  and  _48
REMARK   18  A    between atoms: _51  and  _52
REMARK   19  A    between atoms: _57  and  _59
REMARK   20  A    between atoms: _59  and  _60
REMARK   21  A    between atoms: _59  and  _62
REMARK   22  A    between atoms: _62  and  _63
REMARK   23  A    between atoms: _68  and  _70
REMARK   24  A    between atoms: _70  and  _71
REMARK   25  A    between atoms: _74  and  _76
REMARK   26  A    between atoms: _76  and  _77
REMARK   27  A    between atoms: _76  and  _79
REMARK   28  A    between atoms: _79  and  _80
REMARK   29  A    between atoms: _85  and  _87
REMARK   30  A    between atoms: _87  and  _88
REMARK   31  A    between atoms: _87  and  _90
REMARK   32  A    between atoms: _90  and  _91
REMARK   33  A    between atoms: _94  and  _96
REMARK   34  A    between atoms: _96  and  _97
REMARK   35  A    between atoms: _96  and  _99
REMARK   36  A    between atoms: _99  and  _100
REMARK   37  A    between atoms: _100  and  _101
REMARK   38  A    between atoms: _106  and  _108
REMARK   39  A    between atoms: _108  and  _109
REMARK   40  A    between atoms: _108  and  _111
REMARK   41  A    between atoms: _111  and  _112
REMARK   42  A    between atoms: _118  and  _120
REMARK   43  A    between atoms: _131  and  _134
REMARK   44  A    between atoms: _134  and  _135
REMARK   45  A    between atoms: _143  and  _144
REMARK   46  A    between atoms: _152  and  _154
REMARK   47  A    between atoms: _154  and  _155
REMARK   48  A    between atoms: _154  and  _157
REMARK   49  A    between atoms: _157  and  _158
REMARK   50  A    between atoms: _158  and  _159
REMARK   51  A    between atoms: _162  and  _164
REMARK   52  A    between atoms: _164  and  _165
REMARK   53  A    between atoms: _164  and  _167
REMARK   54  A    between atoms: _167  and  _168
REMARK   55  A    between atoms: _173  and  _175
REMARK   56  A    between atoms: _175  and  _176
REMARK   57  A    between atoms: _175  and  _178
REMARK   58  A    between atoms: _178  and  _179
REMARK   59  A    between atoms: _179  and  _180
REMARK   60  A    between atoms: _183  and  _185
REMARK   61  A    between atoms: _185  and  _186
REMARK   62  A    between atoms: _185  and  _188
REMARK   63  A    between atoms: _188  and  _189
REMARK   64  A    between atoms: _192  and  _194
REMARK   65  A    between atoms: _194  and  _195
REMARK   66  A    between atoms: _194  and  _197
REMARK   67  A    between atoms: _197  and  _198
REMARK   68  A    between atoms: _199  and  ZN_433
REMARK   69  A    between atoms: _203  and  _205
REMARK   70  A    between atoms: _205  and  _206
REMARK   71  A    between atoms: _205  and  _208
REMARK   72  A    between atoms: _208  and  _209
REMARK   73  A    between atoms: _212  and  _214
REMARK   74  A    between atoms: _214  and  _215
REMARK   75  A    between atoms: _214  and  _217
REMARK   76  A    between atoms: _220  and  _222
REMARK   77  A    between atoms: _222  and  _223
REMARK   78  A    between atoms: _222  and  _225
REMARK   79  A    between atoms: _225  and  _226
REMARK   80  A    between atoms: _231  and  _233
REMARK   81  A    between atoms: _233  and  _234
REMARK   82  A    between atoms: _233  and  _236
REMARK   83  A    between atoms: _239  and  _241
REMARK   84  A    between atoms: _241  and  _242
REMARK   85  A    between atoms: _244  and  _246
REMARK   86  A    between atoms: _246  and  _247
REMARK   87  A    between atoms: _250  and  _252
REMARK   88  A    between atoms: _252  and  _253
REMARK   89  A    between atoms: _252  and  _255
REMARK   90  A    between atoms: _258  and  _260
REMARK   91  A    between atoms: _260  and  _261
REMARK   92  A    between atoms: _260  and  _263
REMARK   93  A    between atoms: _263  and  _264
REMARK   94  A    between atoms: _264  and  _265
REMARK   95  A    between atoms: _270  and  _272
REMARK   96  A    between atoms: _272  and  _273
REMARK   97  A    between atoms: _272  and  _275
REMARK   98  A    between atoms: _275  and  _276
REMARK   99  A    between atoms: _279  and  _281
REMARK  100  A    between atoms: _281  and  _282
REMARK  101  A    between atoms: _285  and  _287
REMARK  102  A    between atoms: _287  and  _288
REMARK  103  A    between atoms: _287  and  _290
REMARK  104  A    between atoms: _293  and  _295
REMARK  105  A    between atoms: _295  and  _296
REMARK  106  A    between atoms: _295  and  _298
REMARK  107  A    between atoms: _298  and  _299
REMARK  108  A    between atoms: _302  and  _304
REMARK  109  A    between atoms: _304  and  _305
REMARK  110  A    between atoms: _307  and  _309
REMARK  111  A    between atoms: _309  and  _310
REMARK  112  A    between atoms: _309  and  _312
REMARK  113  A    between atoms: _312  and  _313
REMARK  114  A    between atoms: _315  and  _317
REMARK  115  A    between atoms: _317  and  _318
REMARK  116  A    between atoms: _317  and  _320
REMARK  117  A    between atoms: _320  and  _321
REMARK  118  A    between atoms: _324  and  _326
REMARK  119  A    between atoms: _326  and  _327
REMARK  120  A    between atoms: _326  and  _329
REMARK  121  A    between atoms: _329  and  _330
REMARK  122  A    between atoms: _333  and  _335
REMARK  123  A    between atoms: _335  and  _336
REMARK  124  A    between atoms: _335  and  _338
REMARK  125  A    between atoms: _338  and  _339
REMARK  126  A    between atoms: _343  and  _344
REMARK  127  A    between atoms: _350  and  _351
REMARK  128  A    between atoms: _356  and  _358
REMARK  129  A    between atoms: _358  and  _359
REMARK  130  A    between atoms: _358  and  _361
REMARK  131  A    between atoms: _361  and  _362
REMARK  132  A    between atoms: _365  and  _367
REMARK  133  A    between atoms: _367  and  _368
REMARK  134  A    between atoms: _367  and  _370
REMARK  135  A    between atoms: _370  and  _371
REMARK  136  A    between atoms: _374  and  _376
REMARK  137  A    between atoms: _376  and  _377
REMARK  138  A    between atoms: _376  and  _379
REMARK  139  A    between atoms: _381  and  _383
REMARK  140  A    between atoms: _383  and  _384
REMARK  141  A    between atoms: _383  and  _386
REMARK  142  A    between atoms: _389  and  _391
REMARK  143  A    between atoms: _391  and  _392
REMARK  144  A    between atoms: _391  and  _394
REMARK  145  A    between atoms: _394  and  _395
REMARK  146  A    between atoms: _405  and  _407
REMARK  147  A    between atoms: _407  and  _408
REMARK  148  A    between atoms: _407  and  _410
REMARK  149  A    between atoms: _410  and  _411
REMARK  150  A    between atoms: _416  and  _418
REMARK  151  A    between atoms: _418  and  _419
REMARK  152  A    between atoms: _418  and  _421
REMARK  153  A    between atoms: _421  and  _422
REMARK  154  A    between atoms: _422  and  _423
REMARK  155  A    between atoms: _423  and  _424
REMARK                            x       y       z     vdW  Elec       q    Type
REMARK                         _______ _______ _______ _____ _____    ______ ____
ROOT
ATOM      1  O   HOH     1      -4.649   4.540  10.334  0.00  0.00    +0.000 OA
ENDROOT
TORSDOF 0
REMARK  Name = ../refined-set-2016/1g45/1g45_pocket.pdb
REMARK  155 active torsions:
REMARK  status: ('A' for Active; 'I' for Inactive)
REMARK    1  A    between atoms: _1  and  _3
REMARK    2  A    between atoms: _3  and  _4
REMARK    3  A    between atoms: _3  and  _6
REMARK    4  A    between atoms: _6  and  _7
REMARK    5  A    between atoms: _12  and  _14
REMARK    6  A    between atoms: _14  and  _15
REMARK    7  A    between atoms: _14  and  _17
REMARK    8  A    between atoms: _17  and  _18
REMARK    9  A    between atoms: _28  and  _30
REMARK   10  A    between atoms: _30  and  _31
REMARK   11  A    between atoms: _30  and  _33
REMARK   12  A    between atoms: _33  and  _34
REMARK   13  A    between atoms: _39  and  _40
REMARK   14  A    between atoms: _42  and  _44
REMARK   15  A    between atoms: _44  and  _45
REMARK   16  A    between atoms: _44  and  _47
REMARK   17  A    between atoms: _47  and  _48
REMARK   18  A    between atoms: _51  and  _52
REMARK   19  A    between atoms: _57  and  _59
REMARK   20  A    between atoms: _59  and  _60
REMARK   21  A    between atoms: _59  and  _62
REMARK   22  A    between atoms: _62  and  _63
REMARK   23  A    between atoms: _68  and  _70
REMARK   24  A    between atoms: _70  and  _71
REMARK   25  A    between atoms: _74  and  _76
REMARK   26  A    between atoms: _76  and  _77
REMARK   27  A    between atoms: _76  and  _79
REMARK   28  A    between atoms: _79  and  _80
REMARK   29  A    between atoms: _85  and  _87
REMARK   30  A    between atoms: _87  and  _88
REMARK   31  A    between atoms: _87  and  _90
REMARK   32  A    between atoms: _90  and  _91
REMARK   33  A    between atoms: _94  and  _96
REMARK   34  A    between atoms: _96  and  _97
REMARK   35  A    between atoms: _96  and  _99
REMARK   36  A    between atoms: _99  and  _100
REMARK   37  A    between atoms: _100  and  _101
REMARK   38  A    between atoms: _106  and  _108
REMARK   39  A    between atoms: _108  and  _109
REMARK   40  A    between atoms: _108  and  _111
REMARK   41  A    between atoms: _111  and  _112
REMARK   42  A    between atoms: _118  and  _120
REMARK   43  A    between atoms: _131  and  _134
REMARK   44  A    between atoms: _134  and  _135
REMARK   45  A    between atoms: _143  and  _144
REMARK   46  A    between atoms: _152  and  _154
REMARK   47  A    between atoms: _154  and  _155
REMARK   48  A    between atoms: _154  and  _157
REMARK   49  A    between atoms: _157  and  _158
REMARK   50  A    between atoms: _158  and  _159
REMARK   51  A    between atoms: _162  and  _164
REMARK   52  A    between atoms: _164  and  _165
REMARK   53  A    between atoms: _164  and  _167
REMARK   54  A    between atoms: _167  and  _168
REMARK   55  A    between atoms: _173  and  _175
REMARK   56  A    between atoms: _175  and  _176
REMARK   57  A    between atoms: _175  and  _178
REMARK   58  A    between atoms: _178  and  _179
REMARK   59  A    between atoms: _179  and  _180
REMARK   60  A    between atoms: _183  and  _185
REMARK   61  A    between atoms: _185  and  _186
REMARK   62  A    between atoms: _185  and  _188
REMARK   63  A    between atoms: _188  and  _189
REMARK   64  A    between atoms: _192  and  _194
REMARK   65  A    between atoms: _194  and  _195
REMARK   66  A    between atoms: _194  and  _197
REMARK   67  A    between atoms: _197  and  _198
REMARK   68  A    between atoms: _199  and  ZN_433
REMARK   69  A    between atoms: _203  and  _205
REMARK   70  A    between atoms: _205  and  _206
REMARK   71  A    between atoms: _205  and  _208
REMARK   72  A    between atoms: _208  and  _209
REMARK   73  A    between atoms: _212  and  _214
REMARK   74  A    between atoms: _214  and  _215
REMARK   75  A    between atoms: _214  and  _217
REMARK   76  A    between atoms: _220  and  _222
REMARK   77  A    between atoms: _222  and  _223
REMARK   78  A    between atoms: _222  and  _225
REMARK   79  A    between atoms: _225  and  _226
REMARK   80  A    between atoms: _231  and  _233
REMARK   81  A    between atoms: _233  and  _234
REMARK   82  A    between atoms: _233  and  _236
REMARK   83  A    between atoms: _239  and  _241
REMARK   84  A    between atoms: _241  and  _242
REMARK   85  A    between atoms: _244  and  _246
REMARK   86  A    between atoms: _246  and  _247
REMARK   87  A    between atoms: _250  and  _252
REMARK   88  A    between atoms: _252  and  _253
REMARK   89  A    between atoms: _252  and  _255
REMARK   90  A    between atoms: _258  and  _260
REMARK   91  A    between atoms: _260  and  _261
REMARK   92  A    between atoms: _260  and  _263
REMARK   93  A    between atoms: _263  and  _264
REMARK   94  A    between atoms: _264  and  _265
REMARK   95  A    between atoms: _270  and  _272
REMARK   96  A    between atoms: _272  and  _273
REMARK   97  A    between atoms: _272  and  _275
REMARK   98  A    between atoms: _275  and  _276
REMARK   99  A    between atoms: _279  and  _281
REMARK  100  A    between atoms: _281  and  _282
REMARK  101  A    between atoms: _285  and  _287
REMARK  102  A    between atoms: _287  and  _288
REMARK  103  A    between atoms: _287  and  _290
REMARK  104  A    between atoms: _293  and  _295
REMARK  105  A    between atoms: _295  and  _296
REMARK  106  A    between atoms: _295  and  _298
REMARK  107  A    between atoms: _298  and  _299
REMARK  108  A    between atoms: _302  and  _304
REMARK  109  A    between atoms: _304  and  _305
REMARK  110  A    between atoms: _307  and  _309
REMARK  111  A    between atoms: _309  and  _310
REMARK  112  A    between atoms: _309  and  _312
REMARK  113  A    between atoms: _312  and  _313
REMARK  114  A    between atoms: _315  and  _317
REMARK  115  A    between atoms: _317  and  _318
REMARK  116  A    between atoms: _317  and  _320
REMARK  117  A    between atoms: _320  and  _321
REMARK  118  A    between atoms: _324  and  _326
REMARK  119  A    between atoms: _326  and  _327
REMARK  120  A    between atoms: _326  and  _329
REMARK  121  A    between atoms: _329  and  _330
REMARK  122  A    between atoms: _333  and  _335
REMARK  123  A    between atoms: _335  and  _336
REMARK  124  A    between atoms: _335  and  _338
REMARK  125  A    between atoms: _338  and  _339
REMARK  126  A    between atoms: _343  and  _344
REMARK  127  A    between atoms: _350  and  _351
REMARK  128  A    between atoms: _356  and  _358
REMARK  129  A    between atoms: _358  and  _359
REMARK  130  A    between atoms: _358  and  _361
REMARK  131  A    between atoms: _361  and  _362
REMARK  132  A    between atoms: _365  and  _367
REMARK  133  A    between atoms: _367  and  _368
REMARK  134  A    between atoms: _367  and  _370
REMARK  135  A    between atoms: _370  and  _371
REMARK  136  A    between atoms: _374  and  _376
REMARK  137  A    between atoms: _376  and  _377
REMARK  138  A    between atoms: _376  and  _379
REMARK  139  A    between atoms: _381  and  _383
REMARK  140  A    between atoms: _383  and  _384
REMARK  141  A    between atoms: _383  and  _386
REMARK  142  A    between atoms: _389  and  _391
REMARK  143  A    between atoms: _391  and  _392
REMARK  144  A    between atoms: _391  and  _394
REMARK  145  A    between atoms: _394  and  _395
REMARK  146  A    between atoms: _405  and  _407
REMARK  147  A    between atoms: _407  and  _408
REMARK  148  A    between atoms: _407  and  _410
REMARK  149  A    between atoms: _410  and  _411
REMARK  150  A    between atoms: _416  and  _418
REMARK  151  A    between atoms: _418  and  _419
REMARK  152  A    between atoms: _418  and  _421
REMARK  153  A    between atoms: _421  and  _422
REMARK  154  A    between atoms: _422  and  _423
REMARK  155  A    between atoms: _423  and  _424
REMARK                            x       y       z     vdW  Elec       q    Type
REMARK                         _______ _______ _______ _____ _____    ______ ____
ROOT
ATOM      1  O   HOH     1      -1.705   2.804  10.686  0.00  0.00    +0.000 OA
ENDROOT
TORSDOF 0
