REMARK  Name = ../refined-set-2016/3cdb/3cdb_pocket.pdb
REMARK  230 active torsions:
REMARK  status: ('A' for Active; 'I' for Inactive)
REMARK    1  A    between atoms: _1  and  _3
REMARK    2  A    between atoms: _3  and  _4
REMARK    3  A    between atoms: _3  and  _6
REMARK    4  A    between atoms: _6  and  _7
REMARK    5  A    between atoms: _10  and  _12
REMARK    6  A    between atoms: _12  and  _13
REMARK    7  A    between atoms: _12  and  _15
REMARK    8  A    between atoms: _15  and  _16
REMARK    9  A    between atoms: _16  and  _17
REMARK   10  A    between atoms: _20  and  _22
REMARK   11  A    between atoms: _22  and  _23
REMARK   12  A    between atoms: _25  and  _27
REMARK   13  A    between atoms: _27  and  _28
REMARK   14  A    between atoms: _27  and  _30
REMARK   15  A    between atoms: _32  and  _34
REMARK   16  A    between atoms: _34  and  _35
REMARK   17  A    between atoms: _34  and  _37
REMARK   18  A    between atoms: _37  and  _38
REMARK   19  A    between atoms: _41  and  _43
REMARK   20  A    between atoms: _43  and  _44
REMARK   21  A    between atoms: _43  and  _46
REMARK   22  A    between atoms: _49  and  _51
REMARK   23  A    between atoms: _51  and  _52
REMARK   24  A    between atoms: _55  and  _57
REMARK   25  A    between atoms: _57  and  _58
REMARK   26  A    between atoms: _57  and  _60
REMARK   27  A    between atoms: _60  and  _61
REMARK   28  A    between atoms: _63  and  _65
REMARK   29  A    between atoms: _65  and  _66
REMARK   30  A    between atoms: _65  and  _68
REMARK   31  A    between atoms: _68  and  _69
REMARK   32  A    between atoms: _72  and  _74
REMARK   33  A    between atoms: _74  and  _75
REMARK   34  A    between atoms: _74  and  _77
REMARK   35  A    between atoms: _77  and  _78
REMARK   36  A    between atoms: _78  and  _79
REMARK   37  A    between atoms: _79  and  _80
REMARK   38  A    between atoms: _89  and  _91
REMARK   39  A    between atoms: _91  and  _92
REMARK   40  A    between atoms: _91  and  _94
REMARK   41  A    between atoms: _94  and  _95
REMARK   42  A    between atoms: _95  and  _96
REMARK   43  A    between atoms: _96  and  _97
REMARK   44  A    between atoms: _97  and  _98
REMARK   45  A    between atoms: _102  and  _104
REMARK   46  A    between atoms: _104  and  _105
REMARK   47  A    between atoms: _104  and  _107
REMARK   48  A    between atoms: _107  and  _108
REMARK   49  A    between atoms: _113  and  _115
REMARK   50  A    between atoms: _115  and  _116
REMARK   51  A    between atoms: _115  and  _118
REMARK   52  A    between atoms: _118  and  _119
REMARK   53  A    between atoms: _124  and  _126
REMARK   54  A    between atoms: _126  and  _127
REMARK   55  A    between atoms: _130  and  _132
REMARK   56  A    between atoms: _132  and  _133
REMARK   57  A    between atoms: _132  and  _135
REMARK   58  A    between atoms: _135  and  _136
REMARK   59  A    between atoms: _141  and  _143
REMARK   60  A    between atoms: _143  and  _144
REMARK   61  A    between atoms: _147  and  _149
REMARK   62  A    between atoms: _149  and  _150
REMARK   63  A    between atoms: _153  and  _155
REMARK   64  A    between atoms: _155  and  _156
REMARK   65  A    between atoms: _155  and  _158
REMARK   66  A    between atoms: _158  and  _159
REMARK   67  A    between atoms: _164  and  _166
REMARK   68  A    between atoms: _166  and  _167
REMARK   69  A    between atoms: _166  and  _169
REMARK   70  A    between atoms: _169  and  _170
REMARK   71  A    between atoms: _173  and  _175
REMARK   72  A    between atoms: _175  and  _176
REMARK   73  A    between atoms: _178  and  _180
REMARK   74  A    between atoms: _180  and  _181
REMARK   75  A    between atoms: _180  and  _183
REMARK   76  A    between atoms: _183  and  _184
REMARK   77  A    between atoms: _184  and  _185
REMARK   78  A    between atoms: _188  and  _190
REMARK   79  A    between atoms: _190  and  _191
REMARK   80  A    between atoms: _190  and  _193
REMARK   81  A    between atoms: _193  and  _194
REMARK   82  A    between atoms: _196  and  _198
REMARK   83  A    between atoms: _198  and  _199
REMARK   84  A    between atoms: _198  and  _201
REMARK   85  A    between atoms: _201  and  _202
REMARK   86  A    between atoms: _205  and  _207
REMARK   87  A    between atoms: _207  and  _208
REMARK   88  A    between atoms: _207  and  _210
REMARK   89  A    between atoms: _210  and  _211
REMARK   90  A    between atoms: _211  and  _212
REMARK   91  A    between atoms: _214  and  _216
REMARK   92  A    between atoms: _216  and  _217
REMARK   93  A    between atoms: _220  and  _222
REMARK   94  A    between atoms: _222  and  _223
REMARK   95  A    between atoms: _226  and  _228
REMARK   96  A    between atoms: _228  and  _229
REMARK   97  A    between atoms: _228  and  _231
REMARK   98  A    between atoms: _231  and  _232
REMARK   99  A    between atoms: _235  and  _237
REMARK  100  A    between atoms: _237  and  _238
REMARK  101  A    between atoms: _241  and  _243
REMARK  102  A    between atoms: _243  and  _244
REMARK  103  A    between atoms: _247  and  _249
REMARK  104  A    between atoms: _249  and  _250
REMARK  105  A    between atoms: _252  and  _254
REMARK  106  A    between atoms: _254  and  _255
REMARK  107  A    between atoms: _254  and  _257
REMARK  108  A    between atoms: _257  and  _258
REMARK  109  A    between atoms: _263  and  _265
REMARK  110  A    between atoms: _265  and  _266
REMARK  111  A    between atoms: _268  and  _270
REMARK  112  A    between atoms: _270  and  _271
REMARK  113  A    between atoms: _274  and  _276
REMARK  114  A    between atoms: _276  and  _277
REMARK  115  A    between atoms: _276  and  _279
REMARK  116  A    between atoms: _279  and  _280
REMARK  117  A    between atoms: _280  and  _281
REMARK  118  A    between atoms: _284  and  _286
REMARK  119  A    between atoms: _286  and  _287
REMARK  120  A    between atoms: _286  and  _289
REMARK  121  A    between atoms: _289  and  _290
REMARK  122  A    between atoms: _293  and  _295
REMARK  123  A    between atoms: _295  and  _296
REMARK  124  A    between atoms: _295  and  _298
REMARK  125  A    between atoms: _298  and  _299
REMARK  126  A    between atoms: _299  and  _300
REMARK  127  A    between atoms: _300  and  _301
REMARK  128  A    between atoms: _310  and  _312
REMARK  129  A    between atoms: _312  and  _313
REMARK  130  A    between atoms: _316  and  _317
REMARK  131  A    between atoms: _322  and  _324
REMARK  132  A    between atoms: _324  and  _325
REMARK  133  A    between atoms: _324  and  _327
REMARK  134  A    between atoms: _327  and  _328
REMARK  135  A    between atoms: _328  and  _329
REMARK  136  A    between atoms: _331  and  _333
REMARK  137  A    between atoms: _333  and  _334
REMARK  138  A    between atoms: _333  and  _336
REMARK  139  A    between atoms: _336  and  _337
REMARK  140  A    between atoms: _337  and  _338
REMARK  141  A    between atoms: _340  and  _342
REMARK  142  A    between atoms: _342  and  _343
REMARK  143  A    between atoms: _342  and  _345
REMARK  144  A    between atoms: _345  and  _346
REMARK  145  A    between atoms: _351  and  _353
REMARK  146  A    between atoms: _353  and  _354
REMARK  147  A    between atoms: _353  and  _356
REMARK  148  A    between atoms: _356  and  _357
REMARK  149  A    between atoms: _360  and  _362
REMARK  150  A    between atoms: _362  and  _363
REMARK  151  A    between atoms: _362  and  _365
REMARK  152  A    between atoms: _365  and  _366
REMARK  153  A    between atoms: _368  and  _370
REMARK  154  A    between atoms: _370  and  _371
REMARK  155  A    between atoms: _370  and  _373
REMARK  156  A    between atoms: _373  and  _374
REMARK  157  A    between atoms: _374  and  _375
REMARK  158  A    between atoms: _375  and  _376
REMARK  159  A    between atoms: _376  and  _377
REMARK  160  A    between atoms: _381  and  _383
REMARK  161  A    between atoms: _383  and  _384
REMARK  162  A    between atoms: _383  and  _386
REMARK  163  A    between atoms: _386  and  _387
REMARK  164  A    between atoms: _390  and  _392
REMARK  165  A    between atoms: _392  and  _393
REMARK  166  A    between atoms: _392  and  _395
REMARK  167  A    between atoms: _395  and  _396
REMARK  168  A    between atoms: _396  and  _397
REMARK  169  A    between atoms: _400  and  _402
REMARK  170  A    between atoms: _402  and  _403
REMARK  171  A    between atoms: _406  and  _408
REMARK  172  A    between atoms: _408  and  _409
REMARK  173  A    between atoms: _408  and  _411
REMARK  174  A    between atoms: _414  and  _416
REMARK  175  A    between atoms: _416  and  _417
REMARK  176  A    between atoms: _416  and  _419
REMARK  177  A    between atoms: _419  and  _420
REMARK  178  A    between atoms: _422  and  _424
REMARK  179  A    between atoms: _424  and  _425
REMARK  180  A    between atoms: _427  and  _429
REMARK  181  A    between atoms: _429  and  _430
REMARK  182  A    between atoms: _429  and  _432
REMARK  183  A    between atoms: _432  and  _433
REMARK  184  A    between atoms: _438  and  _440
REMARK  185  A    between atoms: _440  and  _441
REMARK  186  A    between atoms: _440  and  _443
REMARK  187  A    between atoms: _443  and  _444
REMARK  188  A    between atoms: _449  and  _450
REMARK  189  A    between atoms: _452  and  _454
REMARK  190  A    between atoms: _454  and  _455
REMARK  191  A    between atoms: _454  and  _457
REMARK  192  A    between atoms: _459  and  _461
REMARK  193  A    between atoms: _461  and  _462
REMARK  194  A    between atoms: _461  and  _464
REMARK  195  A    between atoms: _464  and  _465
REMARK  196  A    between atoms: _468  and  _470
REMARK  197  A    between atoms: _470  and  _471
REMARK  198  A    between atoms: _470  and  _473
REMARK  199  A    between atoms: _473  and  _474
REMARK  200  A    between atoms: _477  and  _479
REMARK  201  A    between atoms: _479  and  _480
REMARK  202  A    between atoms: _479  and  _482
REMARK  203  A    between atoms: _482  and  _483
REMARK  204  A    between atoms: _483  and  _484
REMARK  205  A    between atoms: _484  and  _485
REMARK  206  A    between atoms: _485  and  _486
REMARK  207  A    between atoms: _490  and  _492
REMARK  208  A    between atoms: _492  and  _493
REMARK  209  A    between atoms: _492  and  _495
REMARK  210  A    between atoms: _495  and  _496
REMARK  211  A    between atoms: _496  and  _497
REMARK  212  A    between atoms: _497  and  _498
REMARK  213  A    between atoms: _498  and  _499
REMARK  214  A    between atoms: _503  and  _505
REMARK  215  A    between atoms: _505  and  _506
REMARK  216  A    between atoms: _505  and  _508
REMARK  217  A    between atoms: _508  and  _509
REMARK  218  A    between atoms: _509  and  _510
REMARK  219  A    between atoms: _510  and  _511
REMARK  220  A    between atoms: _520  and  _522
REMARK  221  A    between atoms: _522  and  _523
REMARK  222  A    between atoms: _522  and  _525
REMARK  223  A    between atoms: _525  and  _526
REMARK  224  A    between atoms: _529  and  _531
REMARK  225  A    between atoms: _531  and  _532
REMARK  226  A    between atoms: _535  and  _537
REMARK  227  A    between atoms: _537  and  _538
REMARK  228  A    between atoms: _537  and  _540
REMARK  229  A    between atoms: _540  and  _541
REMARK  230  A    between atoms: _541  and  _542
REMARK                            x       y       z     vdW  Elec       q    Type
REMARK                         _______ _______ _______ _____ _____    ______ ____
ROOT
ATOM      1  CA  THR A   1      10.838  18.720  43.014  0.00  0.00    +0.160 C 
ENDROOT
BRANCH   1   2
ATOM      2  N   THR A   1      11.451  20.024  42.799  0.00  0.00    -0.237 NA
ATOM      3  H   THR A   1      11.696  20.617  43.618  0.00  0.00    +0.142 HD
ENDBRANCH   1   2
BRANCH   1   4
ATOM      4  C   THR A   1      10.051  18.649  44.322  0.00  0.00    +0.227 C 
ATOM      5  O   THR A   1      10.251  19.477  45.214  0.00  0.00    -0.287 OA
ENDBRANCH   1   4
BRANCH   1   6
ATOM      6  CB  THR A   1      11.945  17.632  42.962  0.00  0.00    +0.134 C 
ATOM      7  CG2 THR A   1      12.948  17.791  44.115  0.00  0.00    +0.034 C 
BRANCH   6   8
ATOM      8  OG1 THR A   1      11.381  16.328  43.154  0.00  0.00    -0.383 OA
ATOM      9  HG1 THR A   1      12.101  15.650  43.118  0.00  0.00    +0.210 HD
ENDBRANCH   6   8
ENDBRANCH   1   6
TORSDOF 4
REMARK  Name = ../refined-set-2016/3cdb/3cdb_pocket.pdb
REMARK  230 active torsions:
REMARK  status: ('A' for Active; 'I' for Inactive)
REMARK    1  A    between atoms: _1  and  _3
REMARK    2  A    between atoms: _3  and  _4
REMARK    3  A    between atoms: _3  and  _6
REMARK    4  A    between atoms: _6  and  _7
REMARK    5  A    between atoms: _10  and  _12
REMARK    6  A    between atoms: _12  and  _13
REMARK    7  A    between atoms: _12  and  _15
REMARK    8  A    between atoms: _15  and  _16
REMARK    9  A    between atoms: _16  and  _17
REMARK   10  A    between atoms: _20  and  _22
REMARK   11  A    between atoms: _22  and  _23
REMARK   12  A    between atoms: _25  and  _27
REMARK   13  A    between atoms: _27  and  _28
REMARK   14  A    between atoms: _27  and  _30
REMARK   15  A    between atoms: _32  and  _34
REMARK   16  A    between atoms: _34  and  _35
REMARK   17  A    between atoms: _34  and  _37
REMARK   18  A    between atoms: _37  and  _38
REMARK   19  A    between atoms: _41  and  _43
REMARK   20  A    between atoms: _43  and  _44
REMARK   21  A    between atoms: _43  and  _46
REMARK   22  A    between atoms: _49  and  _51
REMARK   23  A    between atoms: _51  and  _52
REMARK   24  A    between atoms: _55  and  _57
REMARK   25  A    between atoms: _57  and  _58
REMARK   26  A    between atoms: _57  and  _60
REMARK   27  A    between atoms: _60  and  _61
REMARK   28  A    between atoms: _63  and  _65
REMARK   29  A    between atoms: _65  and  _66
REMARK   30  A    between atoms: _65  and  _68
REMARK   31  A    between atoms: _68  and  _69
REMARK   32  A    between atoms: _72  and  _74
REMARK   33  A    between atoms: _74  and  _75
REMARK   34  A    between atoms: _74  and  _77
REMARK   35  A    between atoms: _77  and  _78
REMARK   36  A    between atoms: _78  and  _79
REMARK   37  A    between atoms: _79  and  _80
REMARK   38  A    between atoms: _89  and  _91
REMARK   39  A    between atoms: _91  and  _92
REMARK   40  A    between atoms: _91  and  _94
REMARK   41  A    between atoms: _94  and  _95
REMARK   42  A    between atoms: _95  and  _96
REMARK   43  A    between atoms: _96  and  _97
REMARK   44  A    between atoms: _97  and  _98
REMARK   45  A    between atoms: _102  and  _104
REMARK   46  A    between atoms: _104  and  _105
REMARK   47  A    between atoms: _104  and  _107
REMARK   48  A    between atoms: _107  and  _108
REMARK   49  A    between atoms: _113  and  _115
REMARK   50  A    between atoms: _115  and  _116
REMARK   51  A    between atoms: _115  and  _118
REMARK   52  A    between atoms: _118  and  _119
REMARK   53  A    between atoms: _124  and  _126
REMARK   54  A    between atoms: _126  and  _127
REMARK   55  A    between atoms: _130  and  _132
REMARK   56  A    between atoms: _132  and  _133
REMARK   57  A    between atoms: _132  and  _135
REMARK   58  A    between atoms: _135  and  _136
REMARK   59  A    between atoms: _141  and  _143
REMARK   60  A    between atoms: _143  and  _144
REMARK   61  A    between atoms: _147  and  _149
REMARK   62  A    between atoms: _149  and  _150
REMARK   63  A    between atoms: _153  and  _155
REMARK   64  A    between atoms: _155  and  _156
REMARK   65  A    between atoms: _155  and  _158
REMARK   66  A    between atoms: _158  and  _159
REMARK   67  A    between atoms: _164  and  _166
REMARK   68  A    between atoms: _166  and  _167
REMARK   69  A    between atoms: _166  and  _169
REMARK   70  A    between atoms: _169  and  _170
REMARK   71  A    between atoms: _173  and  _175
REMARK   72  A    between atoms: _175  and  _176
REMARK   73  A    between atoms: _178  and  _180
REMARK   74  A    between atoms: _180  and  _181
REMARK   75  A    between atoms: _180  and  _183
REMARK   76  A    between atoms: _183  and  _184
REMARK   77  A    between atoms: _184  and  _185
REMARK   78  A    between atoms: _188  and  _190
REMARK   79  A    between atoms: _190  and  _191
REMARK   80  A    between atoms: _190  and  _193
REMARK   81  A    between atoms: _193  and  _194
REMARK   82  A    between atoms: _196  and  _198
REMARK   83  A    between atoms: _198  and  _199
REMARK   84  A    between atoms: _198  and  _201
REMARK   85  A    between atoms: _201  and  _202
REMARK   86  A    between atoms: _205  and  _207
REMARK   87  A    between atoms: _207  and  _208
REMARK   88  A    between atoms: _207  and  _210
REMARK   89  A    between atoms: _210  and  _211
REMARK   90  A    between atoms: _211  and  _212
REMARK   91  A    between atoms: _214  and  _216
REMARK   92  A    between atoms: _216  and  _217
REMARK   93  A    between atoms: _220  and  _222
REMARK   94  A    between atoms: _222  and  _223
REMARK   95  A    between atoms: _226  and  _228
REMARK   96  A    between atoms: _228  and  _229
REMARK   97  A    between atoms: _228  and  _231
REMARK   98  A    between atoms: _231  and  _232
REMARK   99  A    between atoms: _235  and  _237
REMARK  100  A    between atoms: _237  and  _238
REMARK  101  A    between atoms: _241  and  _243
REMARK  102  A    between atoms: _243  and  _244
REMARK  103  A    between atoms: _247  and  _249
REMARK  104  A    between atoms: _249  and  _250
REMARK  105  A    between atoms: _252  and  _254
REMARK  106  A    between atoms: _254  and  _255
REMARK  107  A    between atoms: _254  and  _257
REMARK  108  A    between atoms: _257  and  _258
REMARK  109  A    between atoms: _263  and  _265
REMARK  110  A    between atoms: _265  and  _266
REMARK  111  A    between atoms: _268  and  _270
REMARK  112  A    between atoms: _270  and  _271
REMARK  113  A    between atoms: _274  and  _276
REMARK  114  A    between atoms: _276  and  _277
REMARK  115  A    between atoms: _276  and  _279
REMARK  116  A    between atoms: _279  and  _280
REMARK  117  A    between atoms: _280  and  _281
REMARK  118  A    between atoms: _284  and  _286
REMARK  119  A    between atoms: _286  and  _287
REMARK  120  A    between atoms: _286  and  _289
REMARK  121  A    between atoms: _289  and  _290
REMARK  122  A    between atoms: _293  and  _295
REMARK  123  A    between atoms: _295  and  _296
REMARK  124  A    between atoms: _295  and  _298
REMARK  125  A    between atoms: _298  and  _299
REMARK  126  A    between atoms: _299  and  _300
REMARK  127  A    between atoms: _300  and  _301
REMARK  128  A    between atoms: _310  and  _312
REMARK  129  A    between atoms: _312  and  _313
REMARK  130  A    between atoms: _316  and  _317
REMARK  131  A    between atoms: _322  and  _324
REMARK  132  A    between atoms: _324  and  _325
REMARK  133  A    between atoms: _324  and  _327
REMARK  134  A    between atoms: _327  and  _328
REMARK  135  A    between atoms: _328  and  _329
REMARK  136  A    between atoms: _331  and  _333
REMARK  137  A    between atoms: _333  and  _334
REMARK  138  A    between atoms: _333  and  _336
REMARK  139  A    between atoms: _336  and  _337
REMARK  140  A    between atoms: _337  and  _338
REMARK  141  A    between atoms: _340  and  _342
REMARK  142  A    between atoms: _342  and  _343
REMARK  143  A    between atoms: _342  and  _345
REMARK  144  A    between atoms: _345  and  _346
REMARK  145  A    between atoms: _351  and  _353
REMARK  146  A    between atoms: _353  and  _354
REMARK  147  A    between atoms: _353  and  _356
REMARK  148  A    between atoms: _356  and  _357
REMARK  149  A    between atoms: _360  and  _362
REMARK  150  A    between atoms: _362  and  _363
REMARK  151  A    between atoms: _362  and  _365
REMARK  152  A    between atoms: _365  and  _366
REMARK  153  A    between atoms: _368  and  _370
REMARK  154  A    between atoms: _370  and  _371
REMARK  155  A    between atoms: _370  and  _373
REMARK  156  A    between atoms: _373  and  _374
REMARK  157  A    between atoms: _374  and  _375
REMARK  158  A    between atoms: _375  and  _376
REMARK  159  A    between atoms: _376  and  _377
REMARK  160  A    between atoms: _381  and  _383
REMARK  161  A    between atoms: _383  and  _384
REMARK  162  A    between atoms: _383  and  _386
REMARK  163  A    between atoms: _386  and  _387
REMARK  164  A    between atoms: _390  and  _392
REMARK  165  A    between atoms: _392  and  _393
REMARK  166  A    between atoms: _392  and  _395
REMARK  167  A    between atoms: _395  and  _396
REMARK  168  A    between atoms: _396  and  _397
REMARK  169  A    between atoms: _400  and  _402
REMARK  170  A    between atoms: _402  and  _403
REMARK  171  A    between atoms: _406  and  _408
REMARK  172  A    between atoms: _408  and  _409
REMARK  173  A    between atoms: _408  and  _411
REMARK  174  A    between atoms: _414  and  _416
REMARK  175  A    between atoms: _416  and  _417
REMARK  176  A    between atoms: _416  and  _419
REMARK  177  A    between atoms: _419  and  _420
REMARK  178  A    between atoms: _422  and  _424
REMARK  179  A    between atoms: _424  and  _425
REMARK  180  A    between atoms: _427  and  _429
REMARK  181  A    between atoms: _429  and  _430
REMARK  182  A    between atoms: _429  and  _432
REMARK  183  A    between atoms: _432  and  _433
REMARK  184  A    between atoms: _438  and  _440
REMARK  185  A    between atoms: _440  and  _441
REMARK  186  A    between atoms: _440  and  _443
REMARK  187  A    between atoms: _443  and  _444
REMARK  188  A    between atoms: _449  and  _450
REMARK  189  A    between atoms: _452  and  _454
REMARK  190  A    between atoms: _454  and  _455
REMARK  191  A    between atoms: _454  and  _457
REMARK  192  A    between atoms: _459  and  _461
REMARK  193  A    between atoms: _461  and  _462
REMARK  194  A    between atoms: _461  and  _464
REMARK  195  A    between atoms: _464  and  _465
REMARK  196  A    between atoms: _468  and  _470
REMARK  197  A    between atoms: _470  and  _471
REMARK  198  A    between atoms: _470  and  _473
REMARK  199  A    between atoms: _473  and  _474
REMARK  200  A    between atoms: _477  and  _479
REMARK  201  A    between atoms: _479  and  _480
REMARK  202  A    between atoms: _479  and  _482
REMARK  203  A    between atoms: _482  and  _483
REMARK  204  A    between atoms: _483  and  _484
REMARK  205  A    between atoms: _484  and  _485
REMARK  206  A    between atoms: _485  and  _486
REMARK  207  A    between atoms: _490  and  _492
REMARK  208  A    between atoms: _492  and  _493
REMARK  209  A    between atoms: _492  and  _495
REMARK  210  A    between atoms: _495  and  _496
REMARK  211  A    between atoms: _496  and  _497
REMARK  212  A    between atoms: _497  and  _498
REMARK  213  A    between atoms: _498  and  _499
REMARK  214  A    between atoms: _503  and  _505
REMARK  215  A    between atoms: _505  and  _506
REMARK  216  A    between atoms: _505  and  _508
REMARK  217  A    between atoms: _508  and  _509
REMARK  218  A    between atoms: _509  and  _510
REMARK  219  A    between atoms: _510  and  _511
REMARK  220  A    between atoms: _520  and  _522
REMARK  221  A    between atoms: _522  and  _523
REMARK  222  A    between atoms: _522  and  _525
REMARK  223  A    between atoms: _525  and  _526
REMARK  224  A    between atoms: _529  and  _531
REMARK  225  A    between atoms: _531  and  _532
REMARK  226  A    between atoms: _535  and  _537
REMARK  227  A    between atoms: _537  and  _538
REMARK  228  A    between atoms: _537  and  _540
REMARK  229  A    between atoms: _540  and  _541
REMARK  230  A    between atoms: _541  and  _542
REMARK                            x       y       z     vdW  Elec       q    Type
REMARK                         _______ _______ _______ _____ _____    ______ ____
ROOT
ATOM      1  C   LEU A   4      17.130  14.180  45.369  0.00  0.00    +0.241 C 
ATOM      2  N   VAL A   5      17.024  15.350  45.997  0.00  0.00    -0.297 N 
ATOM      3  H   VAL A   5      16.169  15.543  46.557  0.00  0.00    +0.150 HD
ATOM      4  O   LEU A   4      18.130  13.850  44.732  0.00  0.00    -0.273 OA
ENDROOT
BRANCH   2   5
ATOM      5  CA  VAL A   5      18.069  16.373  45.926  0.00  0.00    +0.149 C 
BRANCH   5   6
ATOM      6  C   VAL A   5      19.297  15.975  46.748  0.00  0.00    +0.241 C 
ATOM      7  N   ALA A   6      19.078  15.367  47.911  0.00  0.00    -0.297 N 
ATOM      8  H   ALA A   6      18.099  15.225  48.231  0.00  0.00    +0.150 HD
ATOM      9  O   VAL A   5      20.424  16.229  46.335  0.00  0.00    -0.273 OA
BRANCH   7  10
ATOM     10  CA  ALA A   6      20.177  14.893  48.753  0.00  0.00    +0.149 C 
ATOM     11  CB  ALA A   6      19.653  14.468  50.121  0.00  0.00    +0.031 C 
BRANCH  10  12
ATOM     12  C   ALA A   6      20.901  13.727  48.082  0.00  0.00    +0.241 C 
ATOM     13  O   ALA A   6      22.119  13.615  48.163  0.00  0.00    -0.273 OA
ATOM     14  N   SER A   7      20.132  12.866  47.416  0.00  0.00    -0.295 N 
ATOM     15  H   SER A   7      19.102  13.012  47.416  0.00  0.00    +0.150 HD
BRANCH  14  16
ATOM     16  CA  SER A   7      20.679  11.726  46.686  0.00  0.00    +0.178 C 
BRANCH  16  17
ATOM     17  C   SER A   7      21.567  12.200  45.544  0.00  0.00    +0.243 C 
ATOM     18  O   SER A   7      22.680  11.705  45.377  0.00  0.00    -0.273 OA
ATOM     19  N   THR A   8      21.083  13.175  44.776  0.00  0.00    -0.296 N 
ATOM     20  H   THR A   8      20.141  13.561  44.988  0.00  0.00    +0.150 HD
BRANCH  19  21
ATOM     21  CA  THR A   8      21.832  13.720  43.645  0.00  0.00    +0.164 C 
BRANCH  21  22
ATOM     22  CB  THR A   8      20.938  14.676  42.821  0.00  0.00    +0.136 C 
ATOM     23  CG2 THR A   8      21.616  15.097  41.538  0.00  0.00    +0.034 C 
BRANCH  22  24
ATOM     24  OG1 THR A   8      19.762  13.986  42.379  0.00  0.00    -0.382 OA
ATOM     25  HG1 THR A   8      19.256  13.662  43.166  0.00  0.00    +0.210 HD
ENDBRANCH  22  24
ENDBRANCH  21  22
BRANCH  21  26
ATOM     26  C   THR A   8      23.069  14.461  44.135  0.00  0.00    +0.229 C 
ATOM     27  O   THR A   8      24.113  14.455  43.481  0.00  0.00    -0.286 OA
ENDBRANCH  21  26
ENDBRANCH  19  21
ENDBRANCH  16  17
BRANCH  16  28
ATOM     28  CB  SER A   7      19.552  10.851  46.136  0.00  0.00    +0.166 C 
BRANCH  28  29
ATOM     29  OG  SER A   7      20.067   9.752  45.405  0.00  0.00    -0.380 OA
ATOM     30  H   SER A   7      20.607  10.086  44.646  0.00  0.00    +0.211 HD
ENDBRANCH  28  29
ENDBRANCH  16  28
ENDBRANCH  14  16
ENDBRANCH  10  12
ENDBRANCH   7  10
ENDBRANCH   5   6
BRANCH   5  31
ATOM     31  CB  VAL A   5      17.559  17.759  46.405  0.00  0.00    +0.027 C 
ATOM     32  CG2 VAL A   5      18.687  18.782  46.407  0.00  0.00    +0.002 C 
ATOM     33  CG1 VAL A   5      16.408  18.253  45.528  0.00  0.00    +0.002 C 
ENDBRANCH   5  31
ENDBRANCH   2   5
BRANCH   1  34
ATOM     34  CA  LEU A   4      15.936  13.234  45.471  0.00  0.00    +0.149 C 
BRANCH  34  37
ATOM     35  C   CYS A   3      16.148  12.736  47.839  0.00  0.00    +0.242 C 
ATOM     36  O   CYS A   3      17.325  12.414  47.708  0.00  0.00    -0.273 OA
ATOM     37  N   LEU A   4      15.404  13.174  46.828  0.00  0.00    -0.297 N 
ATOM     38  H   LEU A   4      14.426  13.479  47.008  0.00  0.00    +0.150 HD
BRANCH  35  39
ATOM     39  CA  CYS A   3      15.500  12.643  49.213  0.00  0.00    +0.160 C 
BRANCH  39  41
ATOM     40  C   GLY A   2      13.022  12.627  48.959  0.00  0.00    +0.243 C 
ATOM     41  N   CYS A   3      14.157  13.227  49.313  0.00  0.00    -0.296 N 
ATOM     42  H   CYS A   3      14.086  14.192  49.693  0.00  0.00    +0.150 HD
ATOM     43  O   GLY A   2      12.958  11.531  48.406  0.00  0.00    -0.273 OA
BRANCH  40  44
ATOM     44  CA  GLY A   2      11.761  13.407  49.260  0.00  0.00    +0.176 C 
BRANCH  44  46
ATOM     45  C   GLU A   1      11.075  13.937  46.990  0.00  0.00    +0.238 C 
ATOM     46  N   GLY A   2      10.816  13.368  48.163  0.00  0.00    -0.296 N 
ATOM     47  H   GLY A   2       9.907  12.880  48.297  0.00  0.00    +0.150 HD
ATOM     48  O   GLU A   1      12.152  14.489  46.728  0.00  0.00    -0.274 OA
BRANCH  45  49
ATOM     49  CA  GLU A   1       9.956  13.850  45.946  0.00  0.00    +0.145 C 
BRANCH  49  50
ATOM     50  N   GLU A   1       9.577  15.193  45.510  0.00  0.00    -0.238 NA
ATOM     51  H   GLU A   1      10.036  15.594  44.667  0.00  0.00    +0.142 HD
ENDBRANCH  49  50
BRANCH  49  52
ATOM     52  CB  GLU A   1      10.414  12.985  44.760  0.00  0.00    +0.038 C 
BRANCH  52  53
ATOM     53  CG  GLU A   1      10.836  11.571  45.155  0.00  0.00    +0.116 C 
BRANCH  53  54
ATOM     54  CD  GLU A   1      10.975  10.623  43.975  0.00  0.00    +0.365 C 
ATOM     55  OE2 GLU A   1      10.882   9.391  44.182  0.00  0.00    -0.246 OA
ATOM     56  OE1 GLU A   1      11.184  11.103  42.843  0.00  0.00    -0.246 OA
ENDBRANCH  53  54
ENDBRANCH  52  53
ENDBRANCH  49  52
ENDBRANCH  45  49
ENDBRANCH  44  46
ENDBRANCH  40  44
ENDBRANCH  39  41
BRANCH  39  57
ATOM     57  CB  CYS A   3      15.538  11.186  49.685  0.00  0.00    +0.098 C 
ATOM     58  SG  CYS A   3      14.997  10.963  51.379  0.00  0.00    -0.080 S 
ENDBRANCH  39  57
ENDBRANCH  35  39
ENDBRANCH  34  37
BRANCH  34  59
ATOM     59  CB  LEU A   4      14.845  13.652  44.477  0.00  0.00    +0.029 C 
BRANCH  59  60
ATOM     60  CG  LEU A   4      15.295  13.855  43.024  0.00  0.00    +0.002 C 
ATOM     61  CD2 LEU A   4      15.933  12.582  42.465  0.00  0.00    +0.000 C 
ATOM     62  CD1 LEU A   4      14.126  14.305  42.150  0.00  0.00    +0.000 C 
ENDBRANCH  59  60
ENDBRANCH  34  59
ENDBRANCH   1  34
TORSDOF 27
REMARK  Name = ../refined-set-2016/3cdb/3cdb_pocket.pdb
REMARK  230 active torsions:
REMARK  status: ('A' for Active; 'I' for Inactive)
REMARK    1  A    between atoms: _1  and  _3
REMARK    2  A    between atoms: _3  and  _4
REMARK    3  A    between atoms: _3  and  _6
REMARK    4  A    between atoms: _6  and  _7
REMARK    5  A    between atoms: _10  and  _12
REMARK    6  A    between atoms: _12  and  _13
REMARK    7  A    between atoms: _12  and  _15
REMARK    8  A    between atoms: _15  and  _16
REMARK    9  A    between atoms: _16  and  _17
REMARK   10  A    between atoms: _20  and  _22
REMARK   11  A    between atoms: _22  and  _23
REMARK   12  A    between atoms: _25  and  _27
REMARK   13  A    between atoms: _27  and  _28
REMARK   14  A    between atoms: _27  and  _30
REMARK   15  A    between atoms: _32  and  _34
REMARK   16  A    between atoms: _34  and  _35
REMARK   17  A    between atoms: _34  and  _37
REMARK   18  A    between atoms: _37  and  _38
REMARK   19  A    between atoms: _41  and  _43
REMARK   20  A    between atoms: _43  and  _44
REMARK   21  A    between atoms: _43  and  _46
REMARK   22  A    between atoms: _49  and  _51
REMARK   23  A    between atoms: _51  and  _52
REMARK   24  A    between atoms: _55  and  _57
REMARK   25  A    between atoms: _57  and  _58
REMARK   26  A    between atoms: _57  and  _60
REMARK   27  A    between atoms: _60  and  _61
REMARK   28  A    between atoms: _63  and  _65
REMARK   29  A    between atoms: _65  and  _66
REMARK   30  A    between atoms: _65  and  _68
REMARK   31  A    between atoms: _68  and  _69
REMARK   32  A    between atoms: _72  and  _74
REMARK   33  A    between atoms: _74  and  _75
REMARK   34  A    between atoms: _74  and  _77
REMARK   35  A    between atoms: _77  and  _78
REMARK   36  A    between atoms: _78  and  _79
REMARK   37  A    between atoms: _79  and  _80
REMARK   38  A    between atoms: _89  and  _91
REMARK   39  A    between atoms: _91  and  _92
REMARK   40  A    between atoms: _91  and  _94
REMARK   41  A    between atoms: _94  and  _95
REMARK   42  A    between atoms: _95  and  _96
REMARK   43  A    between atoms: _96  and  _97
REMARK   44  A    between atoms: _97  and  _98
REMARK   45  A    between atoms: _102  and  _104
REMARK   46  A    between atoms: _104  and  _105
REMARK   47  A    between atoms: _104  and  _107
REMARK   48  A    between atoms: _107  and  _108
REMARK   49  A    between atoms: _113  and  _115
REMARK   50  A    between atoms: _115  and  _116
REMARK   51  A    between atoms: _115  and  _118
REMARK   52  A    between atoms: _118  and  _119
REMARK   53  A    between atoms: _124  and  _126
REMARK   54  A    between atoms: _126  and  _127
REMARK   55  A    between atoms: _130  and  _132
REMARK   56  A    between atoms: _132  and  _133
REMARK   57  A    between atoms: _132  and  _135
REMARK   58  A    between atoms: _135  and  _136
REMARK   59  A    between atoms: _141  and  _143
REMARK   60  A    between atoms: _143  and  _144
REMARK   61  A    between atoms: _147  and  _149
REMARK   62  A    between atoms: _149  and  _150
REMARK   63  A    between atoms: _153  and  _155
REMARK   64  A    between atoms: _155  and  _156
REMARK   65  A    between atoms: _155  and  _158
REMARK   66  A    between atoms: _158  and  _159
REMARK   67  A    between atoms: _164  and  _166
REMARK   68  A    between atoms: _166  and  _167
REMARK   69  A    between atoms: _166  and  _169
REMARK   70  A    between atoms: _169  and  _170
REMARK   71  A    between atoms: _173  and  _175
REMARK   72  A    between atoms: _175  and  _176
REMARK   73  A    between atoms: _178  and  _180
REMARK   74  A    between atoms: _180  and  _181
REMARK   75  A    between atoms: _180  and  _183
REMARK   76  A    between atoms: _183  and  _184
REMARK   77  A    between atoms: _184  and  _185
REMARK   78  A    between atoms: _188  and  _190
REMARK   79  A    between atoms: _190  and  _191
REMARK   80  A    between atoms: _190  and  _193
REMARK   81  A    between atoms: _193  and  _194
REMARK   82  A    between atoms: _196  and  _198
REMARK   83  A    between atoms: _198  and  _199
REMARK   84  A    between atoms: _198  and  _201
REMARK   85  A    between atoms: _201  and  _202
REMARK   86  A    between atoms: _205  and  _207
REMARK   87  A    between atoms: _207  and  _208
REMARK   88  A    between atoms: _207  and  _210
REMARK   89  A    between atoms: _210  and  _211
REMARK   90  A    between atoms: _211  and  _212
REMARK   91  A    between atoms: _214  and  _216
REMARK   92  A    between atoms: _216  and  _217
REMARK   93  A    between atoms: _220  and  _222
REMARK   94  A    between atoms: _222  and  _223
REMARK   95  A    between atoms: _226  and  _228
REMARK   96  A    between atoms: _228  and  _229
REMARK   97  A    between atoms: _228  and  _231
REMARK   98  A    between atoms: _231  and  _232
REMARK   99  A    between atoms: _235  and  _237
REMARK  100  A    between atoms: _237  and  _238
REMARK  101  A    between atoms: _241  and  _243
REMARK  102  A    between atoms: _243  and  _244
REMARK  103  A    between atoms: _247  and  _249
REMARK  104  A    between atoms: _249  and  _250
REMARK  105  A    between atoms: _252  and  _254
REMARK  106  A    between atoms: _254  and  _255
REMARK  107  A    between atoms: _254  and  _257
REMARK  108  A    between atoms: _257  and  _258
REMARK  109  A    between atoms: _263  and  _265
REMARK  110  A    between atoms: _265  and  _266
REMARK  111  A    between atoms: _268  and  _270
REMARK  112  A    between atoms: _270  and  _271
REMARK  113  A    between atoms: _274  and  _276
REMARK  114  A    between atoms: _276  and  _277
REMARK  115  A    between atoms: _276  and  _279
REMARK  116  A    between atoms: _279  and  _280
REMARK  117  A    between atoms: _280  and  _281
REMARK  118  A    between atoms: _284  and  _286
REMARK  119  A    between atoms: _286  and  _287
REMARK  120  A    between atoms: _286  and  _289
REMARK  121  A    between atoms: _289  and  _290
REMARK  122  A    between atoms: _293  and  _295
REMARK  123  A    between atoms: _295  and  _296
REMARK  124  A    between atoms: _295  and  _298
REMARK  125  A    between atoms: _298  and  _299
REMARK  126  A    between atoms: _299  and  _300
REMARK  127  A    between atoms: _300  and  _301
REMARK  128  A    between atoms: _310  and  _312
REMARK  129  A    between atoms: _312  and  _313
REMARK  130  A    between atoms: _316  and  _317
REMARK  131  A    between atoms: _322  and  _324
REMARK  132  A    between atoms: _324  and  _325
REMARK  133  A    between atoms: _324  and  _327
REMARK  134  A    between atoms: _327  and  _328
REMARK  135  A    between atoms: _328  and  _329
REMARK  136  A    between atoms: _331  and  _333
REMARK  137  A    between atoms: _333  and  _334
REMARK  138  A    between atoms: _333  and  _336
REMARK  139  A    between atoms: _336  and  _337
REMARK  140  A    between atoms: _337  and  _338
REMARK  141  A    between atoms: _340  and  _342
REMARK  142  A    between atoms: _342  and  _343
REMARK  143  A    between atoms: _342  and  _345
REMARK  144  A    between atoms: _345  and  _346
REMARK  145  A    between atoms: _351  and  _353
REMARK  146  A    between atoms: _353  and  _354
REMARK  147  A    between atoms: _353  and  _356
REMARK  148  A    between atoms: _356  and  _357
REMARK  149  A    between atoms: _360  and  _362
REMARK  150  A    between atoms: _362  and  _363
REMARK  151  A    between atoms: _362  and  _365
REMARK  152  A    between atoms: _365  and  _366
REMARK  153  A    between atoms: _368  and  _370
REMARK  154  A    between atoms: _370  and  _371
REMARK  155  A    between atoms: _370  and  _373
REMARK  156  A    between atoms: _373  and  _374
REMARK  157  A    between atoms: _374  and  _375
REMARK  158  A    between atoms: _375  and  _376
REMARK  159  A    between atoms: _376  and  _377
REMARK  160  A    between atoms: _381  and  _383
REMARK  161  A    between atoms: _383  and  _384
REMARK  162  A    between atoms: _383  and  _386
REMARK  163  A    between atoms: _386  and  _387
REMARK  164  A    between atoms: _390  and  _392
REMARK  165  A    between atoms: _392  and  _393
REMARK  166  A    between atoms: _392  and  _395
REMARK  167  A    between atoms: _395  and  _396
REMARK  168  A    between atoms: _396  and  _397
REMARK  169  A    between atoms: _400  and  _402
REMARK  170  A    between atoms: _402  and  _403
REMARK  171  A    between atoms: _406  and  _408
REMARK  172  A    between atoms: _408  and  _409
REMARK  173  A    between atoms: _408  and  _411
REMARK  174  A    between atoms: _414  and  _416
REMARK  175  A    between atoms: _416  and  _417
REMARK  176  A    between atoms: _416  and  _419
REMARK  177  A    between atoms: _419  and  _420
REMARK  178  A    between atoms: _422  and  _424
REMARK  179  A    between atoms: _424  and  _425
REMARK  180  A    between atoms: _427  and  _429
REMARK  181  A    between atoms: _429  and  _430
REMARK  182  A    between atoms: _429  and  _432
REMARK  183  A    between atoms: _432  and  _433
REMARK  184  A    between atoms: _438  and  _440
REMARK  185  A    between atoms: _440  and  _441
REMARK  186  A    between atoms: _440  and  _443
REMARK  187  A    between atoms: _443  and  _444
REMARK  188  A    between atoms: _449  and  _450
REMARK  189  A    between atoms: _452  and  _454
REMARK  190  A    between atoms: _454  and  _455
REMARK  191  A    between atoms: _454  and  _457
REMARK  192  A    between atoms: _459  and  _461
REMARK  193  A    between atoms: _461  and  _462
REMARK  194  A    between atoms: _461  and  _464
REMARK  195  A    between atoms: _464  and  _465
REMARK  196  A    between atoms: _468  and  _470
REMARK  197  A    between atoms: _470  and  _471
REMARK  198  A    between atoms: _470  and  _473
REMARK  199  A    between atoms: _473  and  _474
REMARK  200  A    between atoms: _477  and  _479
REMARK  201  A    between atoms: _479  and  _480
REMARK  202  A    between atoms: _479  and  _482
REMARK  203  A    between atoms: _482  and  _483
REMARK  204  A    between atoms: _483  and  _484
REMARK  205  A    between atoms: _484  and  _485
REMARK  206  A    between atoms: _485  and  _486
REMARK  207  A    between atoms: _490  and  _492
REMARK  208  A    between atoms: _492  and  _493
REMARK  209  A    between atoms: _492  and  _495
REMARK  210  A    between atoms: _495  and  _496
REMARK  211  A    between atoms: _496  and  _497
REMARK  212  A    between atoms: _497  and  _498
REMARK  213  A    between atoms: _498  and  _499
REMARK  214  A    between atoms: _503  and  _505
REMARK  215  A    between atoms: _505  and  _506
REMARK  216  A    between atoms: _505  and  _508
REMARK  217  A    between atoms: _508  and  _509
REMARK  218  A    between atoms: _509  and  _510
REMARK  219  A    between atoms: _510  and  _511
REMARK  220  A    between atoms: _520  and  _522
REMARK  221  A    between atoms: _522  and  _523
REMARK  222  A    between atoms: _522  and  _525
REMARK  223  A    between atoms: _525  and  _526
REMARK  224  A    between atoms: _529  and  _531
REMARK  225  A    between atoms: _531  and  _532
REMARK  226  A    between atoms: _535  and  _537
REMARK  227  A    between atoms: _537  and  _538
REMARK  228  A    between atoms: _537  and  _540
REMARK  229  A    between atoms: _540  and  _541
REMARK  230  A    between atoms: _541  and  _542
REMARK                            x       y       z     vdW  Elec       q    Type
REMARK                         _______ _______ _______ _____ _____    ______ ____
ROOT
ATOM      1  NE  ARG A   1      24.803   8.383  48.279  0.00  0.00    -0.265 N 
ATOM      2  CZ  ARG A   1      24.517   7.114  48.559  0.00  0.00    +0.342 C 
ATOM      3  NH2 ARG A   1      24.872   6.577  49.724  0.00  0.00    -0.292 N 
ATOM      4 HH21 ARG A   1      25.379   7.151  50.428  0.00  0.00    +0.255 HD
ATOM      5 HH22 ARG A   1      24.642   5.584  49.930  0.00  0.00    +0.255 HD
ATOM      6  NH1 ARG A   1      23.875   6.371  47.663  0.00  0.00    -0.292 N 
ATOM      7 HH11 ARG A   1      23.649   5.379  47.876  0.00  0.00    +0.255 HD
ATOM      8 HH12 ARG A   1      23.599   6.782  46.748  0.00  0.00    +0.255 HD
ATOM      9  HE  ARG A   1      24.515   8.750  47.350  0.00  0.00    +0.259 HD
ENDROOT
BRANCH   1  10
ATOM     10  CD  ARG A   1      25.494   9.298  49.186  0.00  0.00    +0.174 C 
BRANCH  10  11
ATOM     11  CG  ARG A   1      26.108  10.471  48.449  0.00  0.00    +0.045 C 
BRANCH  11  12
ATOM     12  CB  ARG A   1      25.095  11.464  47.877  0.00  0.00    +0.029 C 
BRANCH  12  13
ATOM     13  CA  ARG A   1      25.754  12.659  47.194  0.00  0.00    +0.133 C 
BRANCH  13  14
ATOM     14  N   ARG A   1      24.769  13.666  46.810  0.00  0.00    -0.239 NA
ATOM     15  H   ARG A   1      23.756  13.443  46.885  0.00  0.00    +0.142 HD
ENDBRANCH  13  14
BRANCH  13  16
ATOM     16  C   ARG A   1      26.543  12.191  45.975  0.00  0.00    +0.224 C 
ATOM     17  O   ARG A   1      27.757  12.027  46.048  0.00  0.00    -0.287 OA
ENDBRANCH  13  16
ENDBRANCH  12  13
ENDBRANCH  11  12
ENDBRANCH  10  11
ENDBRANCH   1  10
TORSDOF 6
REMARK  Name = ../refined-set-2016/3cdb/3cdb_pocket.pdb
REMARK  230 active torsions:
REMARK  status: ('A' for Active; 'I' for Inactive)
REMARK    1  A    between atoms: _1  and  _3
REMARK    2  A    between atoms: _3  and  _4
REMARK    3  A    between atoms: _3  and  _6
REMARK    4  A    between atoms: _6  and  _7
REMARK    5  A    between atoms: _10  and  _12
REMARK    6  A    between atoms: _12  and  _13
REMARK    7  A    between atoms: _12  and  _15
REMARK    8  A    between atoms: _15  and  _16
REMARK    9  A    between atoms: _16  and  _17
REMARK   10  A    between atoms: _20  and  _22
REMARK   11  A    between atoms: _22  and  _23
REMARK   12  A    between atoms: _25  and  _27
REMARK   13  A    between atoms: _27  and  _28
REMARK   14  A    between atoms: _27  and  _30
REMARK   15  A    between atoms: _32  and  _34
REMARK   16  A    between atoms: _34  and  _35
REMARK   17  A    between atoms: _34  and  _37
REMARK   18  A    between atoms: _37  and  _38
REMARK   19  A    between atoms: _41  and  _43
REMARK   20  A    between atoms: _43  and  _44
REMARK   21  A    between atoms: _43  and  _46
REMARK   22  A    between atoms: _49  and  _51
REMARK   23  A    between atoms: _51  and  _52
REMARK   24  A    between atoms: _55  and  _57
REMARK   25  A    between atoms: _57  and  _58
REMARK   26  A    between atoms: _57  and  _60
REMARK   27  A    between atoms: _60  and  _61
REMARK   28  A    between atoms: _63  and  _65
REMARK   29  A    between atoms: _65  and  _66
REMARK   30  A    between atoms: _65  and  _68
REMARK   31  A    between atoms: _68  and  _69
REMARK   32  A    between atoms: _72  and  _74
REMARK   33  A    between atoms: _74  and  _75
REMARK   34  A    between atoms: _74  and  _77
REMARK   35  A    between atoms: _77  and  _78
REMARK   36  A    between atoms: _78  and  _79
REMARK   37  A    between atoms: _79  and  _80
REMARK   38  A    between atoms: _89  and  _91
REMARK   39  A    between atoms: _91  and  _92
REMARK   40  A    between atoms: _91  and  _94
REMARK   41  A    between atoms: _94  and  _95
REMARK   42  A    between atoms: _95  and  _96
REMARK   43  A    between atoms: _96  and  _97
REMARK   44  A    between atoms: _97  and  _98
REMARK   45  A    between atoms: _102  and  _104
REMARK   46  A    between atoms: _104  and  _105
REMARK   47  A    between atoms: _104  and  _107
REMARK   48  A    between atoms: _107  and  _108
REMARK   49  A    between atoms: _113  and  _115
REMARK   50  A    between atoms: _115  and  _116
REMARK   51  A    between atoms: _115  and  _118
REMARK   52  A    between atoms: _118  and  _119
REMARK   53  A    between atoms: _124  and  _126
REMARK   54  A    between atoms: _126  and  _127
REMARK   55  A    between atoms: _130  and  _132
REMARK   56  A    between atoms: _132  and  _133
REMARK   57  A    between atoms: _132  and  _135
REMARK   58  A    between atoms: _135  and  _136
REMARK   59  A    between atoms: _141  and  _143
REMARK   60  A    between atoms: _143  and  _144
REMARK   61  A    between atoms: _147  and  _149
REMARK   62  A    between atoms: _149  and  _150
REMARK   63  A    between atoms: _153  and  _155
REMARK   64  A    between atoms: _155  and  _156
REMARK   65  A    between atoms: _155  and  _158
REMARK   66  A    between atoms: _158  and  _159
REMARK   67  A    between atoms: _164  and  _166
REMARK   68  A    between atoms: _166  and  _167
REMARK   69  A    between atoms: _166  and  _169
REMARK   70  A    between atoms: _169  and  _170
REMARK   71  A    between atoms: _173  and  _175
REMARK   72  A    between atoms: _175  and  _176
REMARK   73  A    between atoms: _178  and  _180
REMARK   74  A    between atoms: _180  and  _181
REMARK   75  A    between atoms: _180  and  _183
REMARK   76  A    between atoms: _183  and  _184
REMARK   77  A    between atoms: _184  and  _185
REMARK   78  A    between atoms: _188  and  _190
REMARK   79  A    between atoms: _190  and  _191
REMARK   80  A    between atoms: _190  and  _193
REMARK   81  A    between atoms: _193  and  _194
REMARK   82  A    between atoms: _196  and  _198
REMARK   83  A    between atoms: _198  and  _199
REMARK   84  A    between atoms: _198  and  _201
REMARK   85  A    between atoms: _201  and  _202
REMARK   86  A    between atoms: _205  and  _207
REMARK   87  A    between atoms: _207  and  _208
REMARK   88  A    between atoms: _207  and  _210
REMARK   89  A    between atoms: _210  and  _211
REMARK   90  A    between atoms: _211  and  _212
REMARK   91  A    between atoms: _214  and  _216
REMARK   92  A    between atoms: _216  and  _217
REMARK   93  A    between atoms: _220  and  _222
REMARK   94  A    between atoms: _222  and  _223
REMARK   95  A    between atoms: _226  and  _228
REMARK   96  A    between atoms: _228  and  _229
REMARK   97  A    between atoms: _228  and  _231
REMARK   98  A    between atoms: _231  and  _232
REMARK   99  A    between atoms: _235  and  _237
REMARK  100  A    between atoms: _237  and  _238
REMARK  101  A    between atoms: _241  and  _243
REMARK  102  A    between atoms: _243  and  _244
REMARK  103  A    between atoms: _247  and  _249
REMARK  104  A    between atoms: _249  and  _250
REMARK  105  A    between atoms: _252  and  _254
REMARK  106  A    between atoms: _254  and  _255
REMARK  107  A    between atoms: _254  and  _257
REMARK  108  A    between atoms: _257  and  _258
REMARK  109  A    between atoms: _263  and  _265
REMARK  110  A    between atoms: _265  and  _266
REMARK  111  A    between atoms: _268  and  _270
REMARK  112  A    between atoms: _270  and  _271
REMARK  113  A    between atoms: _274  and  _276
REMARK  114  A    between atoms: _276  and  _277
REMARK  115  A    between atoms: _276  and  _279
REMARK  116  A    between atoms: _279  and  _280
REMARK  117  A    between atoms: _280  and  _281
REMARK  118  A    between atoms: _284  and  _286
REMARK  119  A    between atoms: _286  and  _287
REMARK  120  A    between atoms: _286  and  _289
REMARK  121  A    between atoms: _289  and  _290
REMARK  122  A    between atoms: _293  and  _295
REMARK  123  A    between atoms: _295  and  _296
REMARK  124  A    between atoms: _295  and  _298
REMARK  125  A    between atoms: _298  and  _299
REMARK  126  A    between atoms: _299  and  _300
REMARK  127  A    between atoms: _300  and  _301
REMARK  128  A    between atoms: _310  and  _312
REMARK  129  A    between atoms: _312  and  _313
REMARK  130  A    between atoms: _316  and  _317
REMARK  131  A    between atoms: _322  and  _324
REMARK  132  A    between atoms: _324  and  _325
REMARK  133  A    between atoms: _324  and  _327
REMARK  134  A    between atoms: _327  and  _328
REMARK  135  A    between atoms: _328  and  _329
REMARK  136  A    between atoms: _331  and  _333
REMARK  137  A    between atoms: _333  and  _334
REMARK  138  A    between atoms: _333  and  _336
REMARK  139  A    between atoms: _336  and  _337
REMARK  140  A    between atoms: _337  and  _338
REMARK  141  A    between atoms: _340  and  _342
REMARK  142  A    between atoms: _342  and  _343
REMARK  143  A    between atoms: _342  and  _345
REMARK  144  A    between atoms: _345  and  _346
REMARK  145  A    between atoms: _351  and  _353
REMARK  146  A    between atoms: _353  and  _354
REMARK  147  A    between atoms: _353  and  _356
REMARK  148  A    between atoms: _356  and  _357
REMARK  149  A    between atoms: _360  and  _362
REMARK  150  A    between atoms: _362  and  _363
REMARK  151  A    between atoms: _362  and  _365
REMARK  152  A    between atoms: _365  and  _366
REMARK  153  A    between atoms: _368  and  _370
REMARK  154  A    between atoms: _370  and  _371
REMARK  155  A    between atoms: _370  and  _373
REMARK  156  A    between atoms: _373  and  _374
REMARK  157  A    between atoms: _374  and  _375
REMARK  158  A    between atoms: _375  and  _376
REMARK  159  A    between atoms: _376  and  _377
REMARK  160  A    between atoms: _381  and  _383
REMARK  161  A    between atoms: _383  and  _384
REMARK  162  A    between atoms: _383  and  _386
REMARK  163  A    between atoms: _386  and  _387
REMARK  164  A    between atoms: _390  and  _392
REMARK  165  A    between atoms: _392  and  _393
REMARK  166  A    between atoms: _392  and  _395
REMARK  167  A    between atoms: _395  and  _396
REMARK  168  A    between atoms: _396  and  _397
REMARK  169  A    between atoms: _400  and  _402
REMARK  170  A    between atoms: _402  and  _403
REMARK  171  A    between atoms: _406  and  _408
REMARK  172  A    between atoms: _408  and  _409
REMARK  173  A    between atoms: _408  and  _411
REMARK  174  A    between atoms: _414  and  _416
REMARK  175  A    between atoms: _416  and  _417
REMARK  176  A    between atoms: _416  and  _419
REMARK  177  A    between atoms: _419  and  _420
REMARK  178  A    between atoms: _422  and  _424
REMARK  179  A    between atoms: _424  and  _425
REMARK  180  A    between atoms: _427  and  _429
REMARK  181  A    between atoms: _429  and  _430
REMARK  182  A    between atoms: _429  and  _432
REMARK  183  A    between atoms: _432  and  _433
REMARK  184  A    between atoms: _438  and  _440
REMARK  185  A    between atoms: _440  and  _441
REMARK  186  A    between atoms: _440  and  _443
REMARK  187  A    between atoms: _443  and  _444
REMARK  188  A    between atoms: _449  and  _450
REMARK  189  A    between atoms: _452  and  _454
REMARK  190  A    between atoms: _454  and  _455
REMARK  191  A    between atoms: _454  and  _457
REMARK  192  A    between atoms: _459  and  _461
REMARK  193  A    between atoms: _461  and  _462
REMARK  194  A    between atoms: _461  and  _464
REMARK  195  A    between atoms: _464  and  _465
REMARK  196  A    between atoms: _468  and  _470
REMARK  197  A    between atoms: _470  and  _471
REMARK  198  A    between atoms: _470  and  _473
REMARK  199  A    between atoms: _473  and  _474
REMARK  200  A    between atoms: _477  and  _479
REMARK  201  A    between atoms: _479  and  _480
REMARK  202  A    between atoms: _479  and  _482
REMARK  203  A    between atoms: _482  and  _483
REMARK  204  A    between atoms: _483  and  _484
REMARK  205  A    between atoms: _484  and  _485
REMARK  206  A    between atoms: _485  and  _486
REMARK  207  A    between atoms: _490  and  _492
REMARK  208  A    between atoms: _492  and  _493
REMARK  209  A    between atoms: _492  and  _495
REMARK  210  A    between atoms: _495  and  _496
REMARK  211  A    between atoms: _496  and  _497
REMARK  212  A    between atoms: _497  and  _498
REMARK  213  A    between atoms: _498  and  _499
REMARK  214  A    between atoms: _503  and  _505
REMARK  215  A    between atoms: _505  and  _506
REMARK  216  A    between atoms: _505  and  _508
REMARK  217  A    between atoms: _508  and  _509
REMARK  218  A    between atoms: _509  and  _510
REMARK  219  A    between atoms: _510  and  _511
REMARK  220  A    between atoms: _520  and  _522
REMARK  221  A    between atoms: _522  and  _523
REMARK  222  A    between atoms: _522  and  _525
REMARK  223  A    between atoms: _525  and  _526
REMARK  224  A    between atoms: _529  and  _531
REMARK  225  A    between atoms: _531  and  _532
REMARK  226  A    between atoms: _535  and  _537
REMARK  227  A    between atoms: _537  and  _538
REMARK  228  A    between atoms: _537  and  _540
REMARK  229  A    between atoms: _540  and  _541
REMARK  230  A    between atoms: _541  and  _542
REMARK                            x       y       z     vdW  Elec       q    Type
REMARK                         _______ _______ _______ _____ _____    ______ ____
ROOT
ATOM      1  C   LYS A   1      18.850  -2.739  34.703  0.00  0.00    +0.238 C 
ATOM      2  N   ASN A   2      19.813  -1.858  34.463  0.00  0.00    -0.298 N 
ATOM      3  H   ASN A   2      20.676  -1.881  35.043  0.00  0.00    +0.150 HD
ATOM      4  O   LYS A   1      17.875  -2.883  33.961  0.00  0.00    -0.274 OA
ENDROOT
BRANCH   1   5
ATOM      5  CA  LYS A   1      19.015  -3.592  35.960  0.00  0.00    +0.145 C 
BRANCH   5   6
ATOM      6  N   LYS A   1      20.166  -4.482  35.813  0.00  0.00    -0.238 NA
ATOM      7  H   LYS A   1      21.115  -4.114  36.024  0.00  0.00    +0.142 HD
ENDBRANCH   5   6
BRANCH   5   8
ATOM      8  CB  LYS A   1      19.181  -2.695  37.192  0.00  0.00    +0.026 C 
BRANCH   8   9
ATOM      9  CG  LYS A   1      18.128  -1.610  37.349  0.00  0.00    -0.000 C 
BRANCH   9  10
ATOM     10  CD  LYS A   1      18.546  -0.588  38.391  0.00  0.00    -0.024 C 
BRANCH  10  11
ATOM     11  CE  LYS A   1      17.565   0.586  38.457  0.00  0.00    -0.086 C 
BRANCH  11  12
ATOM     12  NZ  LYS A   1      16.212   0.151  38.881  0.00  0.00    +0.380 N 
ATOM     13  HZ1 LYS A   1      16.268  -0.281  39.825  0.00  0.00    -0.089 HD
ATOM     14  HZ2 LYS A   1      15.578   0.975  38.913  0.00  0.00    -0.089 HD
ATOM     15  HZ3 LYS A   1      15.844  -0.545  38.201  0.00  0.00    -0.089 HD
ENDBRANCH  11  12
ENDBRANCH  10  11
ENDBRANCH   9  10
ENDBRANCH   8   9
ENDBRANCH   5   8
ENDBRANCH   1   5
BRANCH   2  16
ATOM     16  CA  ASN A   2      19.695  -0.857  33.407  0.00  0.00    +0.146 C 
BRANCH  16  17
ATOM     17  C   ASN A   2      19.875  -1.358  31.981  0.00  0.00    +0.227 C 
ATOM     18  O   ASN A   2      19.408  -0.706  31.053  0.00  0.00    -0.286 OA
ENDBRANCH  16  17
BRANCH  16  19
ATOM     19  CB  ASN A   2      20.641   0.309  33.685  0.00  0.00    +0.112 C 
BRANCH  19  20
ATOM     20  CG  ASN A   2      20.198   1.129  34.873  0.00  0.00    +0.222 C 
ATOM     21  ND2 ASN A   2      21.101   1.951  35.405  0.00  0.00    -0.329 N 
ATOM     22 HD21 ASN A   2      20.852   2.532  36.231  0.00  0.00    +0.145 HD
ATOM     23 HD22 ASN A   2      22.055   2.012  34.994  0.00  0.00    +0.145 HD
ATOM     24  OD1 ASN A   2      19.051   1.017  35.320  0.00  0.00    -0.275 OA
ENDBRANCH  19  20
ENDBRANCH  16  19
ENDBRANCH   2  16
TORSDOF 11
REMARK  Name = ../refined-set-2016/3cdb/3cdb_pocket.pdb
REMARK  230 active torsions:
REMARK  status: ('A' for Active; 'I' for Inactive)
REMARK    1  A    between atoms: _1  and  _3
REMARK    2  A    between atoms: _3  and  _4
REMARK    3  A    between atoms: _3  and  _6
REMARK    4  A    between atoms: _6  and  _7
REMARK    5  A    between atoms: _10  and  _12
REMARK    6  A    between atoms: _12  and  _13
REMARK    7  A    between atoms: _12  and  _15
REMARK    8  A    between atoms: _15  and  _16
REMARK    9  A    between atoms: _16  and  _17
REMARK   10  A    between atoms: _20  and  _22
REMARK   11  A    between atoms: _22  and  _23
REMARK   12  A    between atoms: _25  and  _27
REMARK   13  A    between atoms: _27  and  _28
REMARK   14  A    between atoms: _27  and  _30
REMARK   15  A    between atoms: _32  and  _34
REMARK   16  A    between atoms: _34  and  _35
REMARK   17  A    between atoms: _34  and  _37
REMARK   18  A    between atoms: _37  and  _38
REMARK   19  A    between atoms: _41  and  _43
REMARK   20  A    between atoms: _43  and  _44
REMARK   21  A    between atoms: _43  and  _46
REMARK   22  A    between atoms: _49  and  _51
REMARK   23  A    between atoms: _51  and  _52
REMARK   24  A    between atoms: _55  and  _57
REMARK   25  A    between atoms: _57  and  _58
REMARK   26  A    between atoms: _57  and  _60
REMARK   27  A    between atoms: _60  and  _61
REMARK   28  A    between atoms: _63  and  _65
REMARK   29  A    between atoms: _65  and  _66
REMARK   30  A    between atoms: _65  and  _68
REMARK   31  A    between atoms: _68  and  _69
REMARK   32  A    between atoms: _72  and  _74
REMARK   33  A    between atoms: _74  and  _75
REMARK   34  A    between atoms: _74  and  _77
REMARK   35  A    between atoms: _77  and  _78
REMARK   36  A    between atoms: _78  and  _79
REMARK   37  A    between atoms: _79  and  _80
REMARK   38  A    between atoms: _89  and  _91
REMARK   39  A    between atoms: _91  and  _92
REMARK   40  A    between atoms: _91  and  _94
REMARK   41  A    between atoms: _94  and  _95
REMARK   42  A    between atoms: _95  and  _96
REMARK   43  A    between atoms: _96  and  _97
REMARK   44  A    between atoms: _97  and  _98
REMARK   45  A    between atoms: _102  and  _104
REMARK   46  A    between atoms: _104  and  _105
REMARK   47  A    between atoms: _104  and  _107
REMARK   48  A    between atoms: _107  and  _108
REMARK   49  A    between atoms: _113  and  _115
REMARK   50  A    between atoms: _115  and  _116
REMARK   51  A    between atoms: _115  and  _118
REMARK   52  A    between atoms: _118  and  _119
REMARK   53  A    between atoms: _124  and  _126
REMARK   54  A    between atoms: _126  and  _127
REMARK   55  A    between atoms: _130  and  _132
REMARK   56  A    between atoms: _132  and  _133
REMARK   57  A    between atoms: _132  and  _135
REMARK   58  A    between atoms: _135  and  _136
REMARK   59  A    between atoms: _141  and  _143
REMARK   60  A    between atoms: _143  and  _144
REMARK   61  A    between atoms: _147  and  _149
REMARK   62  A    between atoms: _149  and  _150
REMARK   63  A    between atoms: _153  and  _155
REMARK   64  A    between atoms: _155  and  _156
REMARK   65  A    between atoms: _155  and  _158
REMARK   66  A    between atoms: _158  and  _159
REMARK   67  A    between atoms: _164  and  _166
REMARK   68  A    between atoms: _166  and  _167
REMARK   69  A    between atoms: _166  and  _169
REMARK   70  A    between atoms: _169  and  _170
REMARK   71  A    between atoms: _173  and  _175
REMARK   72  A    between atoms: _175  and  _176
REMARK   73  A    between atoms: _178  and  _180
REMARK   74  A    between atoms: _180  and  _181
REMARK   75  A    between atoms: _180  and  _183
REMARK   76  A    between atoms: _183  and  _184
REMARK   77  A    between atoms: _184  and  _185
REMARK   78  A    between atoms: _188  and  _190
REMARK   79  A    between atoms: _190  and  _191
REMARK   80  A    between atoms: _190  and  _193
REMARK   81  A    between atoms: _193  and  _194
REMARK   82  A    between atoms: _196  and  _198
REMARK   83  A    between atoms: _198  and  _199
REMARK   84  A    between atoms: _198  and  _201
REMARK   85  A    between atoms: _201  and  _202
REMARK   86  A    between atoms: _205  and  _207
REMARK   87  A    between atoms: _207  and  _208
REMARK   88  A    between atoms: _207  and  _210
REMARK   89  A    between atoms: _210  and  _211
REMARK   90  A    between atoms: _211  and  _212
REMARK   91  A    between atoms: _214  and  _216
REMARK   92  A    between atoms: _216  and  _217
REMARK   93  A    between atoms: _220  and  _222
REMARK   94  A    between atoms: _222  and  _223
REMARK   95  A    between atoms: _226  and  _228
REMARK   96  A    between atoms: _228  and  _229
REMARK   97  A    between atoms: _228  and  _231
REMARK   98  A    between atoms: _231  and  _232
REMARK   99  A    between atoms: _235  and  _237
REMARK  100  A    between atoms: _237  and  _238
REMARK  101  A    between atoms: _241  and  _243
REMARK  102  A    between atoms: _243  and  _244
REMARK  103  A    between atoms: _247  and  _249
REMARK  104  A    between atoms: _249  and  _250
REMARK  105  A    between atoms: _252  and  _254
REMARK  106  A    between atoms: _254  and  _255
REMARK  107  A    between atoms: _254  and  _257
REMARK  108  A    between atoms: _257  and  _258
REMARK  109  A    between atoms: _263  and  _265
REMARK  110  A    between atoms: _265  and  _266
REMARK  111  A    between atoms: _268  and  _270
REMARK  112  A    between atoms: _270  and  _271
REMARK  113  A    between atoms: _274  and  _276
REMARK  114  A    between atoms: _276  and  _277
REMARK  115  A    between atoms: _276  and  _279
REMARK  116  A    between atoms: _279  and  _280
REMARK  117  A    between atoms: _280  and  _281
REMARK  118  A    between atoms: _284  and  _286
REMARK  119  A    between atoms: _286  and  _287
REMARK  120  A    between atoms: _286  and  _289
REMARK  121  A    between atoms: _289  and  _290
REMARK  122  A    between atoms: _293  and  _295
REMARK  123  A    between atoms: _295  and  _296
REMARK  124  A    between atoms: _295  and  _298
REMARK  125  A    between atoms: _298  and  _299
REMARK  126  A    between atoms: _299  and  _300
REMARK  127  A    between atoms: _300  and  _301
REMARK  128  A    between atoms: _310  and  _312
REMARK  129  A    between atoms: _312  and  _313
REMARK  130  A    between atoms: _316  and  _317
REMARK  131  A    between atoms: _322  and  _324
REMARK  132  A    between atoms: _324  and  _325
REMARK  133  A    between atoms: _324  and  _327
REMARK  134  A    between atoms: _327  and  _328
REMARK  135  A    between atoms: _328  and  _329
REMARK  136  A    between atoms: _331  and  _333
REMARK  137  A    between atoms: _333  and  _334
REMARK  138  A    between atoms: _333  and  _336
REMARK  139  A    between atoms: _336  and  _337
REMARK  140  A    between atoms: _337  and  _338
REMARK  141  A    between atoms: _340  and  _342
REMARK  142  A    between atoms: _342  and  _343
REMARK  143  A    between atoms: _342  and  _345
REMARK  144  A    between atoms: _345  and  _346
REMARK  145  A    between atoms: _351  and  _353
REMARK  146  A    between atoms: _353  and  _354
REMARK  147  A    between atoms: _353  and  _356
REMARK  148  A    between atoms: _356  and  _357
REMARK  149  A    between atoms: _360  and  _362
REMARK  150  A    between atoms: _362  and  _363
REMARK  151  A    between atoms: _362  and  _365
REMARK  152  A    between atoms: _365  and  _366
REMARK  153  A    between atoms: _368  and  _370
REMARK  154  A    between atoms: _370  and  _371
REMARK  155  A    between atoms: _370  and  _373
REMARK  156  A    between atoms: _373  and  _374
REMARK  157  A    between atoms: _374  and  _375
REMARK  158  A    between atoms: _375  and  _376
REMARK  159  A    between atoms: _376  and  _377
REMARK  160  A    between atoms: _381  and  _383
REMARK  161  A    between atoms: _383  and  _384
REMARK  162  A    between atoms: _383  and  _386
REMARK  163  A    between atoms: _386  and  _387
REMARK  164  A    between atoms: _390  and  _392
REMARK  165  A    between atoms: _392  and  _393
REMARK  166  A    between atoms: _392  and  _395
REMARK  167  A    between atoms: _395  and  _396
REMARK  168  A    between atoms: _396  and  _397
REMARK  169  A    between atoms: _400  and  _402
REMARK  170  A    between atoms: _402  and  _403
REMARK  171  A    between atoms: _406  and  _408
REMARK  172  A    between atoms: _408  and  _409
REMARK  173  A    between atoms: _408  and  _411
REMARK  174  A    between atoms: _414  and  _416
REMARK  175  A    between atoms: _416  and  _417
REMARK  176  A    between atoms: _416  and  _419
REMARK  177  A    between atoms: _419  and  _420
REMARK  178  A    between atoms: _422  and  _424
REMARK  179  A    between atoms: _424  and  _425
REMARK  180  A    between atoms: _427  and  _429
REMARK  181  A    between atoms: _429  and  _430
REMARK  182  A    between atoms: _429  and  _432
REMARK  183  A    between atoms: _432  and  _433
REMARK  184  A    between atoms: _438  and  _440
REMARK  185  A    between atoms: _440  and  _441
REMARK  186  A    between atoms: _440  and  _443
REMARK  187  A    between atoms: _443  and  _444
REMARK  188  A    between atoms: _449  and  _450
REMARK  189  A    between atoms: _452  and  _454
REMARK  190  A    between atoms: _454  and  _455
REMARK  191  A    between atoms: _454  and  _457
REMARK  192  A    between atoms: _459  and  _461
REMARK  193  A    between atoms: _461  and  _462
REMARK  194  A    between atoms: _461  and  _464
REMARK  195  A    between atoms: _464  and  _465
REMARK  196  A    between atoms: _468  and  _470
REMARK  197  A    between atoms: _470  and  _471
REMARK  198  A    between atoms: _470  and  _473
REMARK  199  A    between atoms: _473  and  _474
REMARK  200  A    between atoms: _477  and  _479
REMARK  201  A    between atoms: _479  and  _480
REMARK  202  A    between atoms: _479  and  _482
REMARK  203  A    between atoms: _482  and  _483
REMARK  204  A    between atoms: _483  and  _484
REMARK  205  A    between atoms: _484  and  _485
REMARK  206  A    between atoms: _485  and  _486
REMARK  207  A    between atoms: _490  and  _492
REMARK  208  A    between atoms: _492  and  _493
REMARK  209  A    between atoms: _492  and  _495
REMARK  210  A    between atoms: _495  and  _496
REMARK  211  A    between atoms: _496  and  _497
REMARK  212  A    between atoms: _497  and  _498
REMARK  213  A    between atoms: _498  and  _499
REMARK  214  A    between atoms: _503  and  _505
REMARK  215  A    between atoms: _505  and  _506
REMARK  216  A    between atoms: _505  and  _508
REMARK  217  A    between atoms: _508  and  _509
REMARK  218  A    between atoms: _509  and  _510
REMARK  219  A    between atoms: _510  and  _511
REMARK  220  A    between atoms: _520  and  _522
REMARK  221  A    between atoms: _522  and  _523
REMARK  222  A    between atoms: _522  and  _525
REMARK  223  A    between atoms: _525  and  _526
REMARK  224  A    between atoms: _529  and  _531
REMARK  225  A    between atoms: _531  and  _532
REMARK  226  A    between atoms: _535  and  _537
REMARK  227  A    between atoms: _537  and  _538
REMARK  228  A    between atoms: _537  and  _540
REMARK  229  A    between atoms: _540  and  _541
REMARK  230  A    between atoms: _541  and  _542
REMARK                            x       y       z     vdW  Elec       q    Type
REMARK                         _______ _______ _______ _____ _____    ______ ____
ROOT
ATOM      1  C   HIS A   3      16.366   8.911  36.519  0.00  0.00    +0.241 C 
ATOM      2  O   HIS A   3      16.151   9.947  37.148  0.00  0.00    -0.273 OA
ATOM      3  N   ALA A   4      16.908   8.911  35.307  0.00  0.00    -0.297 N 
ATOM      4  H   ALA A   4      17.062   8.005  34.819  0.00  0.00    +0.150 HD
ENDROOT
BRANCH   3   5
ATOM      5  CA  ALA A   4      17.294  10.154  34.642  0.00  0.00    +0.149 C 
ATOM      6  CB  ALA A   4      17.869   9.870  33.255  0.00  0.00    +0.031 C 
BRANCH   5   7
ATOM      7  C   ALA A   4      16.133  11.134  34.537  0.00  0.00    +0.241 C 
ATOM      8  O   ALA A   4      16.353  12.333  34.526  0.00  0.00    -0.273 OA
ATOM      9  N   ALA A   5      14.908  10.619  34.455  0.00  0.00    -0.297 N 
ATOM     10  H   ALA A   5      14.801   9.585  34.449  0.00  0.00    +0.150 HD
BRANCH   9  11
ATOM     11  CA  ALA A   5      13.706  11.451  34.373  0.00  0.00    +0.149 C 
ATOM     12  CB  ALA A   5      12.482  10.581  34.090  0.00  0.00    +0.031 C 
BRANCH  11  13
ATOM     13  C   ALA A   5      13.473  12.311  35.627  0.00  0.00    +0.241 C 
ATOM     14  N   ASN A   6      13.818  11.790  36.799  0.00  0.00    -0.297 N 
ATOM     15  H   ASN A   6      14.117  10.795  36.846  0.00  0.00    +0.150 HD
ATOM     16  O   ALA A   5      12.975  13.428  35.528  0.00  0.00    -0.273 OA
BRANCH  14  17
ATOM     17  CA  ASN A   6      13.786  12.589  38.029  0.00  0.00    +0.158 C 
BRANCH  17  18
ATOM     18  C   ASN A   6      14.633  13.856  37.944  0.00  0.00    +0.241 C 
ATOM     19  O   ASN A   6      14.177  14.931  38.329  0.00  0.00    -0.273 OA
ATOM     20  N   ILE A   7      15.858  13.732  37.437  0.00  0.00    -0.298 N 
ATOM     21  H   ILE A   7      16.161  12.808  37.068  0.00  0.00    +0.150 HD
BRANCH  20  22
ATOM     22  CA  ILE A   7      16.791  14.862  37.384  0.00  0.00    +0.137 C 
BRANCH  22  23
ATOM     23  C   ILE A   7      16.413  15.829  36.257  0.00  0.00    +0.227 C 
ATOM     24  O   ILE A   7      16.443  17.046  36.436  0.00  0.00    -0.286 OA
ENDBRANCH  22  23
BRANCH  22  25
ATOM     25  CB  ILE A   7      18.257  14.370  37.221  0.00  0.00    +0.026 C 
ATOM     26  CG2 ILE A   7      19.163  15.497  36.726  0.00  0.00    +0.002 C 
BRANCH  25  27
ATOM     27  CG1 ILE A   7      18.802  13.850  38.548  0.00  0.00    +0.002 C 
ATOM     28  CD1 ILE A   7      18.124  12.597  39.065  0.00  0.00    +0.000 C 
ENDBRANCH  25  27
ENDBRANCH  22  25
ENDBRANCH  20  22
ENDBRANCH  17  18
BRANCH  17  29
ATOM     29  CB  ASN A   6      14.242  11.757  39.236  0.00  0.00    +0.114 C 
BRANCH  29  30
ATOM     30  CG  ASN A   6      13.121  10.943  39.847  0.00  0.00    +0.222 C 
ATOM     31  ND2 ASN A   6      13.484   9.928  40.618  0.00  0.00    -0.329 N 
ATOM     32 HD21 ASN A   6      12.760   9.332  41.068  0.00  0.00    +0.145 HD
ATOM     33 HD22 ASN A   6      14.493   9.727  40.773  0.00  0.00    +0.145 HD
ATOM     34  OD1 ASN A   6      11.941  11.224  39.631  0.00  0.00    -0.275 OA
ENDBRANCH  29  30
ENDBRANCH  17  29
ENDBRANCH  14  17
ENDBRANCH  11  13
ENDBRANCH   9  11
ENDBRANCH   5   7
ENDBRANCH   3   5
BRANCH   1  35
ATOM     35  CA  HIS A   3      15.986   7.546  37.096  0.00  0.00    +0.155 C 
BRANCH  35  38
ATOM     36  C   ALA A   2      16.685   5.226  36.870  0.00  0.00    +0.241 C 
ATOM     37  O   ALA A   2      15.543   4.823  37.064  0.00  0.00    -0.273 OA
ATOM     38  N   HIS A   3      17.001   6.517  36.856  0.00  0.00    -0.297 N 
ATOM     39  H   HIS A   3      17.984   6.801  36.672  0.00  0.00    +0.150 HD
BRANCH  36  40
ATOM     40  CA  ALA A   2      17.813   4.232  36.636  0.00  0.00    +0.149 C 
ATOM     41  CB  ALA A   2      18.812   4.275  37.781  0.00  0.00    +0.031 C 
BRANCH  40  43
ATOM     42  C   ASN A   1      18.110   3.835  34.254  0.00  0.00    +0.239 C 
ATOM     43  N   ALA A   2      18.480   4.471  35.359  0.00  0.00    -0.297 N 
ATOM     44  H   ALA A   2      19.262   5.155  35.314  0.00  0.00    +0.150 HD
ATOM     45  O   ASN A   1      17.138   3.080  34.219  0.00  0.00    -0.274 OA
BRANCH  42  46
ATOM     46  CA  ASN A   1      18.953   4.081  33.001  0.00  0.00    +0.154 C 
BRANCH  46  47
ATOM     47  N   ASN A   1      18.453   3.275  31.898  0.00  0.00    -0.238 NA
ATOM     48  H   ASN A   1      17.433   3.079  31.855  0.00  0.00    +0.142 HD
ENDBRANCH  46  47
BRANCH  46  49
ATOM     49  CB  ASN A   1      18.934   5.560  32.606  0.00  0.00    +0.111 C 
BRANCH  49  50
ATOM     50  CG  ASN A   1      17.537   6.057  32.240  0.00  0.00    +0.221 C 
ATOM     51  OD1 ASN A   1      16.802   6.547  33.092  0.00  0.00    -0.275 OA
ATOM     52  ND2 ASN A   1      17.177   5.942  30.970  0.00  0.00    -0.329 N 
ATOM     53 HD21 ASN A   1      16.240   6.273  30.663  0.00  0.00    +0.145 HD
ATOM     54 HD22 ASN A   1      17.831   5.520  30.280  0.00  0.00    +0.145 HD
ENDBRANCH  49  50
ENDBRANCH  46  49
ENDBRANCH  42  46
ENDBRANCH  40  43
ENDBRANCH  36  40
ENDBRANCH  35  38
BRANCH  35  55
ATOM     55  CB  HIS A   3      15.667   7.646  38.598  0.00  0.00    +0.076 C 
BRANCH  55  56
ATOM     56  CG  HIS A   3      16.751   8.274  39.415  0.00  0.00    +0.082 A 
ATOM     57  ND1 HIS A   3      16.543   9.398  40.180  0.00  0.00    -0.227 NA
ATOM     58  CE1 HIS A   3      17.666   9.730  40.790  0.00  0.00    +0.199 A 
ATOM     59  NE2 HIS A   3      18.594   8.852  40.459  0.00  0.00    -0.221 NA
ATOM     60  CD2 HIS A   3      18.048   7.932  39.596  0.00  0.00    +0.115 A 
ENDBRANCH  55  56
ENDBRANCH  35  55
ENDBRANCH   1  35
TORSDOF 22
REMARK  Name = ../refined-set-2016/3cdb/3cdb_pocket.pdb
REMARK  230 active torsions:
REMARK  status: ('A' for Active; 'I' for Inactive)
REMARK    1  A    between atoms: _1  and  _3
REMARK    2  A    between atoms: _3  and  _4
REMARK    3  A    between atoms: _3  and  _6
REMARK    4  A    between atoms: _6  and  _7
REMARK    5  A    between atoms: _10  and  _12
REMARK    6  A    between atoms: _12  and  _13
REMARK    7  A    between atoms: _12  and  _15
REMARK    8  A    between atoms: _15  and  _16
REMARK    9  A    between atoms: _16  and  _17
REMARK   10  A    between atoms: _20  and  _22
REMARK   11  A    between atoms: _22  and  _23
REMARK   12  A    between atoms: _25  and  _27
REMARK   13  A    between atoms: _27  and  _28
REMARK   14  A    between atoms: _27  and  _30
REMARK   15  A    between atoms: _32  and  _34
REMARK   16  A    between atoms: _34  and  _35
REMARK   17  A    between atoms: _34  and  _37
REMARK   18  A    between atoms: _37  and  _38
REMARK   19  A    between atoms: _41  and  _43
REMARK   20  A    between atoms: _43  and  _44
REMARK   21  A    between atoms: _43  and  _46
REMARK   22  A    between atoms: _49  and  _51
REMARK   23  A    between atoms: _51  and  _52
REMARK   24  A    between atoms: _55  and  _57
REMARK   25  A    between atoms: _57  and  _58
REMARK   26  A    between atoms: _57  and  _60
REMARK   27  A    between atoms: _60  and  _61
REMARK   28  A    between atoms: _63  and  _65
REMARK   29  A    between atoms: _65  and  _66
REMARK   30  A    between atoms: _65  and  _68
REMARK   31  A    between atoms: _68  and  _69
REMARK   32  A    between atoms: _72  and  _74
REMARK   33  A    between atoms: _74  and  _75
REMARK   34  A    between atoms: _74  and  _77
REMARK   35  A    between atoms: _77  and  _78
REMARK   36  A    between atoms: _78  and  _79
REMARK   37  A    between atoms: _79  and  _80
REMARK   38  A    between atoms: _89  and  _91
REMARK   39  A    between atoms: _91  and  _92
REMARK   40  A    between atoms: _91  and  _94
REMARK   41  A    between atoms: _94  and  _95
REMARK   42  A    between atoms: _95  and  _96
REMARK   43  A    between atoms: _96  and  _97
REMARK   44  A    between atoms: _97  and  _98
REMARK   45  A    between atoms: _102  and  _104
REMARK   46  A    between atoms: _104  and  _105
REMARK   47  A    between atoms: _104  and  _107
REMARK   48  A    between atoms: _107  and  _108
REMARK   49  A    between atoms: _113  and  _115
REMARK   50  A    between atoms: _115  and  _116
REMARK   51  A    between atoms: _115  and  _118
REMARK   52  A    between atoms: _118  and  _119
REMARK   53  A    between atoms: _124  and  _126
REMARK   54  A    between atoms: _126  and  _127
REMARK   55  A    between atoms: _130  and  _132
REMARK   56  A    between atoms: _132  and  _133
REMARK   57  A    between atoms: _132  and  _135
REMARK   58  A    between atoms: _135  and  _136
REMARK   59  A    between atoms: _141  and  _143
REMARK   60  A    between atoms: _143  and  _144
REMARK   61  A    between atoms: _147  and  _149
REMARK   62  A    between atoms: _149  and  _150
REMARK   63  A    between atoms: _153  and  _155
REMARK   64  A    between atoms: _155  and  _156
REMARK   65  A    between atoms: _155  and  _158
REMARK   66  A    between atoms: _158  and  _159
REMARK   67  A    between atoms: _164  and  _166
REMARK   68  A    between atoms: _166  and  _167
REMARK   69  A    between atoms: _166  and  _169
REMARK   70  A    between atoms: _169  and  _170
REMARK   71  A    between atoms: _173  and  _175
REMARK   72  A    between atoms: _175  and  _176
REMARK   73  A    between atoms: _178  and  _180
REMARK   74  A    between atoms: _180  and  _181
REMARK   75  A    between atoms: _180  and  _183
REMARK   76  A    between atoms: _183  and  _184
REMARK   77  A    between atoms: _184  and  _185
REMARK   78  A    between atoms: _188  and  _190
REMARK   79  A    between atoms: _190  and  _191
REMARK   80  A    between atoms: _190  and  _193
REMARK   81  A    between atoms: _193  and  _194
REMARK   82  A    between atoms: _196  and  _198
REMARK   83  A    between atoms: _198  and  _199
REMARK   84  A    between atoms: _198  and  _201
REMARK   85  A    between atoms: _201  and  _202
REMARK   86  A    between atoms: _205  and  _207
REMARK   87  A    between atoms: _207  and  _208
REMARK   88  A    between atoms: _207  and  _210
REMARK   89  A    between atoms: _210  and  _211
REMARK   90  A    between atoms: _211  and  _212
REMARK   91  A    between atoms: _214  and  _216
REMARK   92  A    between atoms: _216  and  _217
REMARK   93  A    between atoms: _220  and  _222
REMARK   94  A    between atoms: _222  and  _223
REMARK   95  A    between atoms: _226  and  _228
REMARK   96  A    between atoms: _228  and  _229
REMARK   97  A    between atoms: _228  and  _231
REMARK   98  A    between atoms: _231  and  _232
REMARK   99  A    between atoms: _235  and  _237
REMARK  100  A    between atoms: _237  and  _238
REMARK  101  A    between atoms: _241  and  _243
REMARK  102  A    between atoms: _243  and  _244
REMARK  103  A    between atoms: _247  and  _249
REMARK  104  A    between atoms: _249  and  _250
REMARK  105  A    between atoms: _252  and  _254
REMARK  106  A    between atoms: _254  and  _255
REMARK  107  A    between atoms: _254  and  _257
REMARK  108  A    between atoms: _257  and  _258
REMARK  109  A    between atoms: _263  and  _265
REMARK  110  A    between atoms: _265  and  _266
REMARK  111  A    between atoms: _268  and  _270
REMARK  112  A    between atoms: _270  and  _271
REMARK  113  A    between atoms: _274  and  _276
REMARK  114  A    between atoms: _276  and  _277
REMARK  115  A    between atoms: _276  and  _279
REMARK  116  A    between atoms: _279  and  _280
REMARK  117  A    between atoms: _280  and  _281
REMARK  118  A    between atoms: _284  and  _286
REMARK  119  A    between atoms: _286  and  _287
REMARK  120  A    between atoms: _286  and  _289
REMARK  121  A    between atoms: _289  and  _290
REMARK  122  A    between atoms: _293  and  _295
REMARK  123  A    between atoms: _295  and  _296
REMARK  124  A    between atoms: _295  and  _298
REMARK  125  A    between atoms: _298  and  _299
REMARK  126  A    between atoms: _299  and  _300
REMARK  127  A    between atoms: _300  and  _301
REMARK  128  A    between atoms: _310  and  _312
REMARK  129  A    between atoms: _312  and  _313
REMARK  130  A    between atoms: _316  and  _317
REMARK  131  A    between atoms: _322  and  _324
REMARK  132  A    between atoms: _324  and  _325
REMARK  133  A    between atoms: _324  and  _327
REMARK  134  A    between atoms: _327  and  _328
REMARK  135  A    between atoms: _328  and  _329
REMARK  136  A    between atoms: _331  and  _333
REMARK  137  A    between atoms: _333  and  _334
REMARK  138  A    between atoms: _333  and  _336
REMARK  139  A    between atoms: _336  and  _337
REMARK  140  A    between atoms: _337  and  _338
REMARK  141  A    between atoms: _340  and  _342
REMARK  142  A    between atoms: _342  and  _343
REMARK  143  A    between atoms: _342  and  _345
REMARK  144  A    between atoms: _345  and  _346
REMARK  145  A    between atoms: _351  and  _353
REMARK  146  A    between atoms: _353  and  _354
REMARK  147  A    between atoms: _353  and  _356
REMARK  148  A    between atoms: _356  and  _357
REMARK  149  A    between atoms: _360  and  _362
REMARK  150  A    between atoms: _362  and  _363
REMARK  151  A    between atoms: _362  and  _365
REMARK  152  A    between atoms: _365  and  _366
REMARK  153  A    between atoms: _368  and  _370
REMARK  154  A    between atoms: _370  and  _371
REMARK  155  A    between atoms: _370  and  _373
REMARK  156  A    between atoms: _373  and  _374
REMARK  157  A    between atoms: _374  and  _375
REMARK  158  A    between atoms: _375  and  _376
REMARK  159  A    between atoms: _376  and  _377
REMARK  160  A    between atoms: _381  and  _383
REMARK  161  A    between atoms: _383  and  _384
REMARK  162  A    between atoms: _383  and  _386
REMARK  163  A    between atoms: _386  and  _387
REMARK  164  A    between atoms: _390  and  _392
REMARK  165  A    between atoms: _392  and  _393
REMARK  166  A    between atoms: _392  and  _395
REMARK  167  A    between atoms: _395  and  _396
REMARK  168  A    between atoms: _396  and  _397
REMARK  169  A    between atoms: _400  and  _402
REMARK  170  A    between atoms: _402  and  _403
REMARK  171  A    between atoms: _406  and  _408
REMARK  172  A    between atoms: _408  and  _409
REMARK  173  A    between atoms: _408  and  _411
REMARK  174  A    between atoms: _414  and  _416
REMARK  175  A    between atoms: _416  and  _417
REMARK  176  A    between atoms: _416  and  _419
REMARK  177  A    between atoms: _419  and  _420
REMARK  178  A    between atoms: _422  and  _424
REMARK  179  A    between atoms: _424  and  _425
REMARK  180  A    between atoms: _427  and  _429
REMARK  181  A    between atoms: _429  and  _430
REMARK  182  A    between atoms: _429  and  _432
REMARK  183  A    between atoms: _432  and  _433
REMARK  184  A    between atoms: _438  and  _440
REMARK  185  A    between atoms: _440  and  _441
REMARK  186  A    between atoms: _440  and  _443
REMARK  187  A    between atoms: _443  and  _444
REMARK  188  A    between atoms: _449  and  _450
REMARK  189  A    between atoms: _452  and  _454
REMARK  190  A    between atoms: _454  and  _455
REMARK  191  A    between atoms: _454  and  _457
REMARK  192  A    between atoms: _459  and  _461
REMARK  193  A    between atoms: _461  and  _462
REMARK  194  A    between atoms: _461  and  _464
REMARK  195  A    between atoms: _464  and  _465
REMARK  196  A    between atoms: _468  and  _470
REMARK  197  A    between atoms: _470  and  _471
REMARK  198  A    between atoms: _470  and  _473
REMARK  199  A    between atoms: _473  and  _474
REMARK  200  A    between atoms: _477  and  _479
REMARK  201  A    between atoms: _479  and  _480
REMARK  202  A    between atoms: _479  and  _482
REMARK  203  A    between atoms: _482  and  _483
REMARK  204  A    between atoms: _483  and  _484
REMARK  205  A    between atoms: _484  and  _485
REMARK  206  A    between atoms: _485  and  _486
REMARK  207  A    between atoms: _490  and  _492
REMARK  208  A    between atoms: _492  and  _493
REMARK  209  A    between atoms: _492  and  _495
REMARK  210  A    between atoms: _495  and  _496
REMARK  211  A    between atoms: _496  and  _497
REMARK  212  A    between atoms: _497  and  _498
REMARK  213  A    between atoms: _498  and  _499
REMARK  214  A    between atoms: _503  and  _505
REMARK  215  A    between atoms: _505  and  _506
REMARK  216  A    between atoms: _505  and  _508
REMARK  217  A    between atoms: _508  and  _509
REMARK  218  A    between atoms: _509  and  _510
REMARK  219  A    between atoms: _510  and  _511
REMARK  220  A    between atoms: _520  and  _522
REMARK  221  A    between atoms: _522  and  _523
REMARK  222  A    between atoms: _522  and  _525
REMARK  223  A    between atoms: _525  and  _526
REMARK  224  A    between atoms: _529  and  _531
REMARK  225  A    between atoms: _531  and  _532
REMARK  226  A    between atoms: _535  and  _537
REMARK  227  A    between atoms: _537  and  _538
REMARK  228  A    between atoms: _537  and  _540
REMARK  229  A    between atoms: _540  and  _541
REMARK  230  A    between atoms: _541  and  _542
REMARK                            x       y       z     vdW  Elec       q    Type
REMARK                         _______ _______ _______ _____ _____    ______ ____
ROOT
ATOM      1  CA  GLU A   2      22.597   7.555  38.495  0.00  0.00    +0.137 C 
ENDROOT
BRANCH   1   4
ATOM      2  C   GLY A   1      21.890   9.392  39.929  0.00  0.00    +0.240 C 
ATOM      3  O   GLY A   1      21.397   8.623  40.751  0.00  0.00    -0.274 OA
ATOM      4  N   GLU A   2      22.460   8.973  38.802  0.00  0.00    -0.298 N 
ATOM      5  H   GLU A   2      22.817   9.675  38.123  0.00  0.00    +0.150 HD
BRANCH   2   6
ATOM      6  CA  GLY A   1      21.874  10.891  40.171  0.00  0.00    +0.169 C 
BRANCH   6   7
ATOM      7  N   GLY A   1      23.061  11.556  39.662  0.00  0.00    -0.236 NA
ATOM      8  H   GLY A   1      22.964  12.226  38.873  0.00  0.00    +0.142 HD
ENDBRANCH   6   7
ENDBRANCH   2   6
ENDBRANCH   1   4
BRANCH   1   9
ATOM      9  C   GLU A   2      23.570   6.915  39.480  0.00  0.00    +0.227 C 
ATOM     10  O   GLU A   2      23.284   5.864  40.038  0.00  0.00    -0.286 OA
ENDBRANCH   1   9
BRANCH   1  11
ATOM     11  CB  GLU A   2      23.096   7.344  37.064  0.00  0.00    +0.039 C 
BRANCH  11  12
ATOM     12  CG  GLU A   2      22.116   7.755  35.983  0.00  0.00    +0.116 C 
BRANCH  12  13
ATOM     13  CD  GLU A   2      20.889   6.873  35.932  0.00  0.00    +0.365 C 
ATOM     14  OE2 GLU A   2      19.830   7.300  36.439  0.00  0.00    -0.246 OA
ATOM     15  OE1 GLU A   2      20.986   5.755  35.385  0.00  0.00    -0.246 OA
ENDBRANCH  12  13
ENDBRANCH  11  12
ENDBRANCH   1  11
TORSDOF 7
REMARK  Name = ../refined-set-2016/3cdb/3cdb_pocket.pdb
REMARK  230 active torsions:
REMARK  status: ('A' for Active; 'I' for Inactive)
REMARK    1  A    between atoms: _1  and  _3
REMARK    2  A    between atoms: _3  and  _4
REMARK    3  A    between atoms: _3  and  _6
REMARK    4  A    between atoms: _6  and  _7
REMARK    5  A    between atoms: _10  and  _12
REMARK    6  A    between atoms: _12  and  _13
REMARK    7  A    between atoms: _12  and  _15
REMARK    8  A    between atoms: _15  and  _16
REMARK    9  A    between atoms: _16  and  _17
REMARK   10  A    between atoms: _20  and  _22
REMARK   11  A    between atoms: _22  and  _23
REMARK   12  A    between atoms: _25  and  _27
REMARK   13  A    between atoms: _27  and  _28
REMARK   14  A    between atoms: _27  and  _30
REMARK   15  A    between atoms: _32  and  _34
REMARK   16  A    between atoms: _34  and  _35
REMARK   17  A    between atoms: _34  and  _37
REMARK   18  A    between atoms: _37  and  _38
REMARK   19  A    between atoms: _41  and  _43
REMARK   20  A    between atoms: _43  and  _44
REMARK   21  A    between atoms: _43  and  _46
REMARK   22  A    between atoms: _49  and  _51
REMARK   23  A    between atoms: _51  and  _52
REMARK   24  A    between atoms: _55  and  _57
REMARK   25  A    between atoms: _57  and  _58
REMARK   26  A    between atoms: _57  and  _60
REMARK   27  A    between atoms: _60  and  _61
REMARK   28  A    between atoms: _63  and  _65
REMARK   29  A    between atoms: _65  and  _66
REMARK   30  A    between atoms: _65  and  _68
REMARK   31  A    between atoms: _68  and  _69
REMARK   32  A    between atoms: _72  and  _74
REMARK   33  A    between atoms: _74  and  _75
REMARK   34  A    between atoms: _74  and  _77
REMARK   35  A    between atoms: _77  and  _78
REMARK   36  A    between atoms: _78  and  _79
REMARK   37  A    between atoms: _79  and  _80
REMARK   38  A    between atoms: _89  and  _91
REMARK   39  A    between atoms: _91  and  _92
REMARK   40  A    between atoms: _91  and  _94
REMARK   41  A    between atoms: _94  and  _95
REMARK   42  A    between atoms: _95  and  _96
REMARK   43  A    between atoms: _96  and  _97
REMARK   44  A    between atoms: _97  and  _98
REMARK   45  A    between atoms: _102  and  _104
REMARK   46  A    between atoms: _104  and  _105
REMARK   47  A    between atoms: _104  and  _107
REMARK   48  A    between atoms: _107  and  _108
REMARK   49  A    between atoms: _113  and  _115
REMARK   50  A    between atoms: _115  and  _116
REMARK   51  A    between atoms: _115  and  _118
REMARK   52  A    between atoms: _118  and  _119
REMARK   53  A    between atoms: _124  and  _126
REMARK   54  A    between atoms: _126  and  _127
REMARK   55  A    between atoms: _130  and  _132
REMARK   56  A    between atoms: _132  and  _133
REMARK   57  A    between atoms: _132  and  _135
REMARK   58  A    between atoms: _135  and  _136
REMARK   59  A    between atoms: _141  and  _143
REMARK   60  A    between atoms: _143  and  _144
REMARK   61  A    between atoms: _147  and  _149
REMARK   62  A    between atoms: _149  and  _150
REMARK   63  A    between atoms: _153  and  _155
REMARK   64  A    between atoms: _155  and  _156
REMARK   65  A    between atoms: _155  and  _158
REMARK   66  A    between atoms: _158  and  _159
REMARK   67  A    between atoms: _164  and  _166
REMARK   68  A    between atoms: _166  and  _167
REMARK   69  A    between atoms: _166  and  _169
REMARK   70  A    between atoms: _169  and  _170
REMARK   71  A    between atoms: _173  and  _175
REMARK   72  A    between atoms: _175  and  _176
REMARK   73  A    between atoms: _178  and  _180
REMARK   74  A    between atoms: _180  and  _181
REMARK   75  A    between atoms: _180  and  _183
REMARK   76  A    between atoms: _183  and  _184
REMARK   77  A    between atoms: _184  and  _185
REMARK   78  A    between atoms: _188  and  _190
REMARK   79  A    between atoms: _190  and  _191
REMARK   80  A    between atoms: _190  and  _193
REMARK   81  A    between atoms: _193  and  _194
REMARK   82  A    between atoms: _196  and  _198
REMARK   83  A    between atoms: _198  and  _199
REMARK   84  A    between atoms: _198  and  _201
REMARK   85  A    between atoms: _201  and  _202
REMARK   86  A    between atoms: _205  and  _207
REMARK   87  A    between atoms: _207  and  _208
REMARK   88  A    between atoms: _207  and  _210
REMARK   89  A    between atoms: _210  and  _211
REMARK   90  A    between atoms: _211  and  _212
REMARK   91  A    between atoms: _214  and  _216
REMARK   92  A    between atoms: _216  and  _217
REMARK   93  A    between atoms: _220  and  _222
REMARK   94  A    between atoms: _222  and  _223
REMARK   95  A    between atoms: _226  and  _228
REMARK   96  A    between atoms: _228  and  _229
REMARK   97  A    between atoms: _228  and  _231
REMARK   98  A    between atoms: _231  and  _232
REMARK   99  A    between atoms: _235  and  _237
REMARK  100  A    between atoms: _237  and  _238
REMARK  101  A    between atoms: _241  and  _243
REMARK  102  A    between atoms: _243  and  _244
REMARK  103  A    between atoms: _247  and  _249
REMARK  104  A    between atoms: _249  and  _250
REMARK  105  A    between atoms: _252  and  _254
REMARK  106  A    between atoms: _254  and  _255
REMARK  107  A    between atoms: _254  and  _257
REMARK  108  A    between atoms: _257  and  _258
REMARK  109  A    between atoms: _263  and  _265
REMARK  110  A    between atoms: _265  and  _266
REMARK  111  A    between atoms: _268  and  _270
REMARK  112  A    between atoms: _270  and  _271
REMARK  113  A    between atoms: _274  and  _276
REMARK  114  A    between atoms: _276  and  _277
REMARK  115  A    between atoms: _276  and  _279
REMARK  116  A    between atoms: _279  and  _280
REMARK  117  A    between atoms: _280  and  _281
REMARK  118  A    between atoms: _284  and  _286
REMARK  119  A    between atoms: _286  and  _287
REMARK  120  A    between atoms: _286  and  _289
REMARK  121  A    between atoms: _289  and  _290
REMARK  122  A    between atoms: _293  and  _295
REMARK  123  A    between atoms: _295  and  _296
REMARK  124  A    between atoms: _295  and  _298
REMARK  125  A    between atoms: _298  and  _299
REMARK  126  A    between atoms: _299  and  _300
REMARK  127  A    between atoms: _300  and  _301
REMARK  128  A    between atoms: _310  and  _312
REMARK  129  A    between atoms: _312  and  _313
REMARK  130  A    between atoms: _316  and  _317
REMARK  131  A    between atoms: _322  and  _324
REMARK  132  A    between atoms: _324  and  _325
REMARK  133  A    between atoms: _324  and  _327
REMARK  134  A    between atoms: _327  and  _328
REMARK  135  A    between atoms: _328  and  _329
REMARK  136  A    between atoms: _331  and  _333
REMARK  137  A    between atoms: _333  and  _334
REMARK  138  A    between atoms: _333  and  _336
REMARK  139  A    between atoms: _336  and  _337
REMARK  140  A    between atoms: _337  and  _338
REMARK  141  A    between atoms: _340  and  _342
REMARK  142  A    between atoms: _342  and  _343
REMARK  143  A    between atoms: _342  and  _345
REMARK  144  A    between atoms: _345  and  _346
REMARK  145  A    between atoms: _351  and  _353
REMARK  146  A    between atoms: _353  and  _354
REMARK  147  A    between atoms: _353  and  _356
REMARK  148  A    between atoms: _356  and  _357
REMARK  149  A    between atoms: _360  and  _362
REMARK  150  A    between atoms: _362  and  _363
REMARK  151  A    between atoms: _362  and  _365
REMARK  152  A    between atoms: _365  and  _366
REMARK  153  A    between atoms: _368  and  _370
REMARK  154  A    between atoms: _370  and  _371
REMARK  155  A    between atoms: _370  and  _373
REMARK  156  A    between atoms: _373  and  _374
REMARK  157  A    between atoms: _374  and  _375
REMARK  158  A    between atoms: _375  and  _376
REMARK  159  A    between atoms: _376  and  _377
REMARK  160  A    between atoms: _381  and  _383
REMARK  161  A    between atoms: _383  and  _384
REMARK  162  A    between atoms: _383  and  _386
REMARK  163  A    between atoms: _386  and  _387
REMARK  164  A    between atoms: _390  and  _392
REMARK  165  A    between atoms: _392  and  _393
REMARK  166  A    between atoms: _392  and  _395
REMARK  167  A    between atoms: _395  and  _396
REMARK  168  A    between atoms: _396  and  _397
REMARK  169  A    between atoms: _400  and  _402
REMARK  170  A    between atoms: _402  and  _403
REMARK  171  A    between atoms: _406  and  _408
REMARK  172  A    between atoms: _408  and  _409
REMARK  173  A    between atoms: _408  and  _411
REMARK  174  A    between atoms: _414  and  _416
REMARK  175  A    between atoms: _416  and  _417
REMARK  176  A    between atoms: _416  and  _419
REMARK  177  A    between atoms: _419  and  _420
REMARK  178  A    between atoms: _422  and  _424
REMARK  179  A    between atoms: _424  and  _425
REMARK  180  A    between atoms: _427  and  _429
REMARK  181  A    between atoms: _429  and  _430
REMARK  182  A    between atoms: _429  and  _432
REMARK  183  A    between atoms: _432  and  _433
REMARK  184  A    between atoms: _438  and  _440
REMARK  185  A    between atoms: _440  and  _441
REMARK  186  A    between atoms: _440  and  _443
REMARK  187  A    between atoms: _443  and  _444
REMARK  188  A    between atoms: _449  and  _450
REMARK  189  A    between atoms: _452  and  _454
REMARK  190  A    between atoms: _454  and  _455
REMARK  191  A    between atoms: _454  and  _457
REMARK  192  A    between atoms: _459  and  _461
REMARK  193  A    between atoms: _461  and  _462
REMARK  194  A    between atoms: _461  and  _464
REMARK  195  A    between atoms: _464  and  _465
REMARK  196  A    between atoms: _468  and  _470
REMARK  197  A    between atoms: _470  and  _471
REMARK  198  A    between atoms: _470  and  _473
REMARK  199  A    between atoms: _473  and  _474
REMARK  200  A    between atoms: _477  and  _479
REMARK  201  A    between atoms: _479  and  _480
REMARK  202  A    between atoms: _479  and  _482
REMARK  203  A    between atoms: _482  and  _483
REMARK  204  A    between atoms: _483  and  _484
REMARK  205  A    between atoms: _484  and  _485
REMARK  206  A    between atoms: _485  and  _486
REMARK  207  A    between atoms: _490  and  _492
REMARK  208  A    between atoms: _492  and  _493
REMARK  209  A    between atoms: _492  and  _495
REMARK  210  A    between atoms: _495  and  _496
REMARK  211  A    between atoms: _496  and  _497
REMARK  212  A    between atoms: _497  and  _498
REMARK  213  A    between atoms: _498  and  _499
REMARK  214  A    between atoms: _503  and  _505
REMARK  215  A    between atoms: _505  and  _506
REMARK  216  A    between atoms: _505  and  _508
REMARK  217  A    between atoms: _508  and  _509
REMARK  218  A    between atoms: _509  and  _510
REMARK  219  A    between atoms: _510  and  _511
REMARK  220  A    between atoms: _520  and  _522
REMARK  221  A    between atoms: _522  and  _523
REMARK  222  A    between atoms: _522  and  _525
REMARK  223  A    between atoms: _525  and  _526
REMARK  224  A    between atoms: _529  and  _531
REMARK  225  A    between atoms: _531  and  _532
REMARK  226  A    between atoms: _535  and  _537
REMARK  227  A    between atoms: _537  and  _538
REMARK  228  A    between atoms: _537  and  _540
REMARK  229  A    between atoms: _540  and  _541
REMARK  230  A    between atoms: _541  and  _542
REMARK                            x       y       z     vdW  Elec       q    Type
REMARK                         _______ _______ _______ _____ _____    ______ ____
ROOT
ATOM      1  C   ALA A   5      21.027   1.335  46.976  0.00  0.00    +0.241 C 
ATOM      2  O   ALA A   5      20.842   0.558  47.913  0.00  0.00    -0.273 OA
ATOM      3  N   LEU A   6      20.636   1.069  45.729  0.00  0.00    -0.297 N 
ATOM      4  H   LEU A   6      20.786   1.786  44.991  0.00  0.00    +0.150 HD
ENDROOT
BRANCH   1   5
ATOM      5  CA  ALA A   5      21.746   2.662  47.209  0.00  0.00    +0.149 C 
ATOM      6  CB  ALA A   5      20.748   3.792  47.333  0.00  0.00    +0.031 C 
BRANCH   5   9
ATOM      7  C   ALA A   4      23.825   2.244  46.002  0.00  0.00    +0.241 C 
ATOM      8  O   ALA A   4      24.115   1.286  46.718  0.00  0.00    -0.273 OA
ATOM      9  N   ALA A   5      22.710   2.953  46.152  0.00  0.00    -0.297 N 
ATOM     10  H   ALA A   5      22.519   3.738  45.497  0.00  0.00    +0.150 HD
BRANCH   7  11
ATOM     11  CA  ALA A   4      24.753   2.663  44.867  0.00  0.00    +0.149 C 
ATOM     12  CB  ALA A   4      25.675   3.781  45.326  0.00  0.00    +0.031 C 
BRANCH  11  14
ATOM     13  C   MET A   3      23.258   2.229  42.989  0.00  0.00    +0.241 C 
ATOM     14  N   ALA A   4      24.005   3.077  43.684  0.00  0.00    -0.297 N 
ATOM     15  H   ALA A   4      24.059   4.069  43.376  0.00  0.00    +0.150 HD
ATOM     16  O   MET A   3      23.184   1.038  43.253  0.00  0.00    -0.273 OA
BRANCH  13  17
ATOM     17  CA  MET A   3      22.473   2.808  41.817  0.00  0.00    +0.149 C 
BRANCH  17  20
ATOM     18  C   LEU A   2      21.074   4.344  43.103  0.00  0.00    +0.241 C 
ATOM     19  O   LEU A   2      20.609   3.429  43.781  0.00  0.00    -0.273 OA
ATOM     20  N   MET A   3      21.967   4.145  42.131  0.00  0.00    -0.297 N 
ATOM     21  H   MET A   3      22.311   4.960  41.584  0.00  0.00    +0.150 HD
BRANCH  18  22
ATOM     22  CA  LEU A   2      20.614   5.781  43.338  0.00  0.00    +0.149 C 
BRANCH  22  25
ATOM     23  C   SER A   1      22.735   6.710  44.085  0.00  0.00    +0.241 C 
ATOM     24  O   SER A   1      22.778   5.924  45.021  0.00  0.00    -0.274 OA
ATOM     25  N   LEU A   2      21.726   6.729  43.218  0.00  0.00    -0.297 N 
ATOM     26  H   LEU A   2      21.726   7.425  42.445  0.00  0.00    +0.150 HD
BRANCH  23  27
ATOM     27  CA  SER A   1      23.868   7.711  43.889  0.00  0.00    +0.174 C 
BRANCH  27  28
ATOM     28  N   SER A   1      24.362   7.761  42.515  0.00  0.00    -0.236 NA
ATOM     29  H   SER A   1      24.106   8.575  41.921  0.00  0.00    +0.142 HD
ENDBRANCH  27  28
BRANCH  27  30
ATOM     30  CB  SER A   1      23.419   9.106  44.339  0.00  0.00    +0.163 C 
BRANCH  30  31
ATOM     31  OG  SER A   1      22.992   9.107  45.691  0.00  0.00    -0.380 OA
ATOM     32  H   SER A   1      22.710  10.021  45.946  0.00  0.00    +0.211 HD
ENDBRANCH  30  31
ENDBRANCH  27  30
ENDBRANCH  23  27
ENDBRANCH  22  25
BRANCH  22  33
ATOM     33  CB  LEU A   2      19.462   6.121  42.375  0.00  0.00    +0.029 C 
BRANCH  33  34
ATOM     34  CG  LEU A   2      18.241   5.185  42.428  0.00  0.00    +0.002 C 
ATOM     35  CD2 LEU A   2      17.590   5.233  43.801  0.00  0.00    +0.000 C 
ATOM     36  CD1 LEU A   2      17.196   5.499  41.351  0.00  0.00    +0.000 C 
ENDBRANCH  33  34
ENDBRANCH  22  33
ENDBRANCH  18  22
ENDBRANCH  17  20
BRANCH  17  37
ATOM     37  CB  MET A   3      23.360   2.827  40.561  0.00  0.00    +0.041 C 
BRANCH  37  38
ATOM     38  CG  MET A   3      22.596   3.041  39.255  0.00  0.00    +0.060 C 
BRANCH  38  39
ATOM     39  SD  MET A   3      21.395   1.759  38.951  0.00  0.00    -0.139 S 
ATOM     40  CE  MET A   3      22.487   0.459  38.462  0.00  0.00    +0.069 C 
ENDBRANCH  38  39
ENDBRANCH  37  38
ENDBRANCH  17  37
ENDBRANCH  13  17
ENDBRANCH  11  14
ENDBRANCH   7  11
ENDBRANCH   5   9
ENDBRANCH   1   5
BRANCH   3  41
ATOM     41  CA  LEU A   6      20.000  -0.204  45.365  0.00  0.00    +0.149 C 
BRANCH  41  42
ATOM     42  C   LEU A   6      20.970  -1.367  45.497  0.00  0.00    +0.241 C 
ATOM     43  O   LEU A   6      20.565  -2.486  45.810  0.00  0.00    -0.273 OA
ATOM     44  N   ALA A   7      22.247  -1.092  45.248  0.00  0.00    -0.297 N 
ATOM     45  H   ALA A   7      22.507  -0.118  44.992  0.00  0.00    +0.150 HD
BRANCH  44  46
ATOM     46  CA  ALA A   7      23.295  -2.099  45.319  0.00  0.00    +0.149 C 
ATOM     47  CB  ALA A   7      24.585  -1.567  44.684  0.00  0.00    +0.031 C 
BRANCH  46  48
ATOM     48  C   ALA A   7      23.552  -2.527  46.765  0.00  0.00    +0.241 C 
ATOM     49  N   ALA A   8      23.404  -1.593  47.698  0.00  0.00    -0.297 N 
ATOM     50  H   ALA A   8      23.046  -0.657  47.419  0.00  0.00    +0.150 HD
ATOM     51  O   ALA A   7      23.858  -3.686  47.021  0.00  0.00    -0.273 OA
BRANCH  49  52
ATOM     52  CA  ALA A   8      23.726  -1.834  49.103  0.00  0.00    +0.149 C 
ATOM     53  CB  ALA A   8      24.180  -0.537  49.775  0.00  0.00    +0.031 C 
BRANCH  52  54
ATOM     54  C   ALA A   8      22.570  -2.464  49.884  0.00  0.00    +0.241 C 
ATOM     55  O   ALA A   8      22.788  -2.990  50.973  0.00  0.00    -0.273 OA
ATOM     56  N   GLY A   9      21.354  -2.417  49.338  0.00  0.00    -0.295 N 
ATOM     57  H   GLY A   9      21.220  -1.899  48.446  0.00  0.00    +0.150 HD
BRANCH  56  58
ATOM     58  CA  GLY A   9      20.206  -3.072  49.956  0.00  0.00    +0.176 C 
BRANCH  58  59
ATOM     59  C   GLY A   9      19.554  -2.233  51.045  0.00  0.00    +0.243 C 
ATOM     60  O   GLY A   9      19.819  -2.424  52.235  0.00  0.00    -0.273 OA
ATOM     61  N   HIS A  10      18.677  -1.322  50.625  0.00  0.00    -0.298 N 
ATOM     62  H   HIS A  10      18.411  -1.329  49.620  0.00  0.00    +0.150 HD
BRANCH  61  63
ATOM     63  CA  HIS A  10      18.057  -0.301  51.499  0.00  0.00    +0.143 C 
BRANCH  63  64
ATOM     64  C   HIS A  10      19.068   0.433  52.398  0.00  0.00    +0.227 C 
ATOM     65  O   HIS A  10      20.207   0.678  51.990  0.00  0.00    -0.286 OA
ENDBRANCH  63  64
BRANCH  63  66
ATOM     66  CB  HIS A  10      16.858  -0.880  52.291  0.00  0.00    +0.075 C 
BRANCH  66  67
ATOM     67  CG  HIS A  10      15.520  -0.365  51.832  0.00  0.00    +0.082 A 
ATOM     68  ND1 HIS A  10      14.358  -0.562  52.549  0.00  0.00    -0.227 NA
ATOM     69  CE1 HIS A  10      13.344  -0.005  51.908  0.00  0.00    +0.199 A 
ATOM     70  NE2 HIS A  10      13.803   0.543  50.796  0.00  0.00    -0.221 NA
ATOM     71  CD2 HIS A  10      15.159   0.331  50.723  0.00  0.00    +0.115 A 
ENDBRANCH  66  67
ENDBRANCH  63  66
ENDBRANCH  61  63
ENDBRANCH  58  59
ENDBRANCH  56  58
ENDBRANCH  52  54
ENDBRANCH  49  52
ENDBRANCH  46  48
ENDBRANCH  44  46
ENDBRANCH  41  42
BRANCH  41  72
ATOM     72  CB  LEU A   6      19.466  -0.160  43.927  0.00  0.00    +0.029 C 
BRANCH  72  73
ATOM     73  CG  LEU A   6      18.322   0.821  43.655  0.00  0.00    +0.002 C 
ATOM     74  CD2 LEU A   6      17.008   0.264  44.150  0.00  0.00    +0.000 C 
ATOM     75  CD1 LEU A   6      18.237   1.144  42.169  0.00  0.00    +0.000 C 
ENDBRANCH  72  73
ENDBRANCH  41  72
ENDBRANCH   3  41
TORSDOF 31
REMARK  Name = ../refined-set-2016/3cdb/3cdb_pocket.pdb
REMARK  230 active torsions:
REMARK  status: ('A' for Active; 'I' for Inactive)
REMARK    1  A    between atoms: _1  and  _3
REMARK    2  A    between atoms: _3  and  _4
REMARK    3  A    between atoms: _3  and  _6
REMARK    4  A    between atoms: _6  and  _7
REMARK    5  A    between atoms: _10  and  _12
REMARK    6  A    between atoms: _12  and  _13
REMARK    7  A    between atoms: _12  and  _15
REMARK    8  A    between atoms: _15  and  _16
REMARK    9  A    between atoms: _16  and  _17
REMARK   10  A    between atoms: _20  and  _22
REMARK   11  A    between atoms: _22  and  _23
REMARK   12  A    between atoms: _25  and  _27
REMARK   13  A    between atoms: _27  and  _28
REMARK   14  A    between atoms: _27  and  _30
REMARK   15  A    between atoms: _32  and  _34
REMARK   16  A    between atoms: _34  and  _35
REMARK   17  A    between atoms: _34  and  _37
REMARK   18  A    between atoms: _37  and  _38
REMARK   19  A    between atoms: _41  and  _43
REMARK   20  A    between atoms: _43  and  _44
REMARK   21  A    between atoms: _43  and  _46
REMARK   22  A    between atoms: _49  and  _51
REMARK   23  A    between atoms: _51  and  _52
REMARK   24  A    between atoms: _55  and  _57
REMARK   25  A    between atoms: _57  and  _58
REMARK   26  A    between atoms: _57  and  _60
REMARK   27  A    between atoms: _60  and  _61
REMARK   28  A    between atoms: _63  and  _65
REMARK   29  A    between atoms: _65  and  _66
REMARK   30  A    between atoms: _65  and  _68
REMARK   31  A    between atoms: _68  and  _69
REMARK   32  A    between atoms: _72  and  _74
REMARK   33  A    between atoms: _74  and  _75
REMARK   34  A    between atoms: _74  and  _77
REMARK   35  A    between atoms: _77  and  _78
REMARK   36  A    between atoms: _78  and  _79
REMARK   37  A    between atoms: _79  and  _80
REMARK   38  A    between atoms: _89  and  _91
REMARK   39  A    between atoms: _91  and  _92
REMARK   40  A    between atoms: _91  and  _94
REMARK   41  A    between atoms: _94  and  _95
REMARK   42  A    between atoms: _95  and  _96
REMARK   43  A    between atoms: _96  and  _97
REMARK   44  A    between atoms: _97  and  _98
REMARK   45  A    between atoms: _102  and  _104
REMARK   46  A    between atoms: _104  and  _105
REMARK   47  A    between atoms: _104  and  _107
REMARK   48  A    between atoms: _107  and  _108
REMARK   49  A    between atoms: _113  and  _115
REMARK   50  A    between atoms: _115  and  _116
REMARK   51  A    between atoms: _115  and  _118
REMARK   52  A    between atoms: _118  and  _119
REMARK   53  A    between atoms: _124  and  _126
REMARK   54  A    between atoms: _126  and  _127
REMARK   55  A    between atoms: _130  and  _132
REMARK   56  A    between atoms: _132  and  _133
REMARK   57  A    between atoms: _132  and  _135
REMARK   58  A    between atoms: _135  and  _136
REMARK   59  A    between atoms: _141  and  _143
REMARK   60  A    between atoms: _143  and  _144
REMARK   61  A    between atoms: _147  and  _149
REMARK   62  A    between atoms: _149  and  _150
REMARK   63  A    between atoms: _153  and  _155
REMARK   64  A    between atoms: _155  and  _156
REMARK   65  A    between atoms: _155  and  _158
REMARK   66  A    between atoms: _158  and  _159
REMARK   67  A    between atoms: _164  and  _166
REMARK   68  A    between atoms: _166  and  _167
REMARK   69  A    between atoms: _166  and  _169
REMARK   70  A    between atoms: _169  and  _170
REMARK   71  A    between atoms: _173  and  _175
REMARK   72  A    between atoms: _175  and  _176
REMARK   73  A    between atoms: _178  and  _180
REMARK   74  A    between atoms: _180  and  _181
REMARK   75  A    between atoms: _180  and  _183
REMARK   76  A    between atoms: _183  and  _184
REMARK   77  A    between atoms: _184  and  _185
REMARK   78  A    between atoms: _188  and  _190
REMARK   79  A    between atoms: _190  and  _191
REMARK   80  A    between atoms: _190  and  _193
REMARK   81  A    between atoms: _193  and  _194
REMARK   82  A    between atoms: _196  and  _198
REMARK   83  A    between atoms: _198  and  _199
REMARK   84  A    between atoms: _198  and  _201
REMARK   85  A    between atoms: _201  and  _202
REMARK   86  A    between atoms: _205  and  _207
REMARK   87  A    between atoms: _207  and  _208
REMARK   88  A    between atoms: _207  and  _210
REMARK   89  A    between atoms: _210  and  _211
REMARK   90  A    between atoms: _211  and  _212
REMARK   91  A    between atoms: _214  and  _216
REMARK   92  A    between atoms: _216  and  _217
REMARK   93  A    between atoms: _220  and  _222
REMARK   94  A    between atoms: _222  and  _223
REMARK   95  A    between atoms: _226  and  _228
REMARK   96  A    between atoms: _228  and  _229
REMARK   97  A    between atoms: _228  and  _231
REMARK   98  A    between atoms: _231  and  _232
REMARK   99  A    between atoms: _235  and  _237
REMARK  100  A    between atoms: _237  and  _238
REMARK  101  A    between atoms: _241  and  _243
REMARK  102  A    between atoms: _243  and  _244
REMARK  103  A    between atoms: _247  and  _249
REMARK  104  A    between atoms: _249  and  _250
REMARK  105  A    between atoms: _252  and  _254
REMARK  106  A    between atoms: _254  and  _255
REMARK  107  A    between atoms: _254  and  _257
REMARK  108  A    between atoms: _257  and  _258
REMARK  109  A    between atoms: _263  and  _265
REMARK  110  A    between atoms: _265  and  _266
REMARK  111  A    between atoms: _268  and  _270
REMARK  112  A    between atoms: _270  and  _271
REMARK  113  A    between atoms: _274  and  _276
REMARK  114  A    between atoms: _276  and  _277
REMARK  115  A    between atoms: _276  and  _279
REMARK  116  A    between atoms: _279  and  _280
REMARK  117  A    between atoms: _280  and  _281
REMARK  118  A    between atoms: _284  and  _286
REMARK  119  A    between atoms: _286  and  _287
REMARK  120  A    between atoms: _286  and  _289
REMARK  121  A    between atoms: _289  and  _290
REMARK  122  A    between atoms: _293  and  _295
REMARK  123  A    between atoms: _295  and  _296
REMARK  124  A    between atoms: _295  and  _298
REMARK  125  A    between atoms: _298  and  _299
REMARK  126  A    between atoms: _299  and  _300
REMARK  127  A    between atoms: _300  and  _301
REMARK  128  A    between atoms: _310  and  _312
REMARK  129  A    between atoms: _312  and  _313
REMARK  130  A    between atoms: _316  and  _317
REMARK  131  A    between atoms: _322  and  _324
REMARK  132  A    between atoms: _324  and  _325
REMARK  133  A    between atoms: _324  and  _327
REMARK  134  A    between atoms: _327  and  _328
REMARK  135  A    between atoms: _328  and  _329
REMARK  136  A    between atoms: _331  and  _333
REMARK  137  A    between atoms: _333  and  _334
REMARK  138  A    between atoms: _333  and  _336
REMARK  139  A    between atoms: _336  and  _337
REMARK  140  A    between atoms: _337  and  _338
REMARK  141  A    between atoms: _340  and  _342
REMARK  142  A    between atoms: _342  and  _343
REMARK  143  A    between atoms: _342  and  _345
REMARK  144  A    between atoms: _345  and  _346
REMARK  145  A    between atoms: _351  and  _353
REMARK  146  A    between atoms: _353  and  _354
REMARK  147  A    between atoms: _353  and  _356
REMARK  148  A    between atoms: _356  and  _357
REMARK  149  A    between atoms: _360  and  _362
REMARK  150  A    between atoms: _362  and  _363
REMARK  151  A    between atoms: _362  and  _365
REMARK  152  A    between atoms: _365  and  _366
REMARK  153  A    between atoms: _368  and  _370
REMARK  154  A    between atoms: _370  and  _371
REMARK  155  A    between atoms: _370  and  _373
REMARK  156  A    between atoms: _373  and  _374
REMARK  157  A    between atoms: _374  and  _375
REMARK  158  A    between atoms: _375  and  _376
REMARK  159  A    between atoms: _376  and  _377
REMARK  160  A    between atoms: _381  and  _383
REMARK  161  A    between atoms: _383  and  _384
REMARK  162  A    between atoms: _383  and  _386
REMARK  163  A    between atoms: _386  and  _387
REMARK  164  A    between atoms: _390  and  _392
REMARK  165  A    between atoms: _392  and  _393
REMARK  166  A    between atoms: _392  and  _395
REMARK  167  A    between atoms: _395  and  _396
REMARK  168  A    between atoms: _396  and  _397
REMARK  169  A    between atoms: _400  and  _402
REMARK  170  A    between atoms: _402  and  _403
REMARK  171  A    between atoms: _406  and  _408
REMARK  172  A    between atoms: _408  and  _409
REMARK  173  A    between atoms: _408  and  _411
REMARK  174  A    between atoms: _414  and  _416
REMARK  175  A    between atoms: _416  and  _417
REMARK  176  A    between atoms: _416  and  _419
REMARK  177  A    between atoms: _419  and  _420
REMARK  178  A    between atoms: _422  and  _424
REMARK  179  A    between atoms: _424  and  _425
REMARK  180  A    between atoms: _427  and  _429
REMARK  181  A    between atoms: _429  and  _430
REMARK  182  A    between atoms: _429  and  _432
REMARK  183  A    between atoms: _432  and  _433
REMARK  184  A    between atoms: _438  and  _440
REMARK  185  A    between atoms: _440  and  _441
REMARK  186  A    between atoms: _440  and  _443
REMARK  187  A    between atoms: _443  and  _444
REMARK  188  A    between atoms: _449  and  _450
REMARK  189  A    between atoms: _452  and  _454
REMARK  190  A    between atoms: _454  and  _455
REMARK  191  A    between atoms: _454  and  _457
REMARK  192  A    between atoms: _459  and  _461
REMARK  193  A    between atoms: _461  and  _462
REMARK  194  A    between atoms: _461  and  _464
REMARK  195  A    between atoms: _464  and  _465
REMARK  196  A    between atoms: _468  and  _470
REMARK  197  A    between atoms: _470  and  _471
REMARK  198  A    between atoms: _470  and  _473
REMARK  199  A    between atoms: _473  and  _474
REMARK  200  A    between atoms: _477  and  _479
REMARK  201  A    between atoms: _479  and  _480
REMARK  202  A    between atoms: _479  and  _482
REMARK  203  A    between atoms: _482  and  _483
REMARK  204  A    between atoms: _483  and  _484
REMARK  205  A    between atoms: _484  and  _485
REMARK  206  A    between atoms: _485  and  _486
REMARK  207  A    between atoms: _490  and  _492
REMARK  208  A    between atoms: _492  and  _493
REMARK  209  A    between atoms: _492  and  _495
REMARK  210  A    between atoms: _495  and  _496
REMARK  211  A    between atoms: _496  and  _497
REMARK  212  A    between atoms: _497  and  _498
REMARK  213  A    between atoms: _498  and  _499
REMARK  214  A    between atoms: _503  and  _505
REMARK  215  A    between atoms: _505  and  _506
REMARK  216  A    between atoms: _505  and  _508
REMARK  217  A    between atoms: _508  and  _509
REMARK  218  A    between atoms: _509  and  _510
REMARK  219  A    between atoms: _510  and  _511
REMARK  220  A    between atoms: _520  and  _522
REMARK  221  A    between atoms: _522  and  _523
REMARK  222  A    between atoms: _522  and  _525
REMARK  223  A    between atoms: _525  and  _526
REMARK  224  A    between atoms: _529  and  _531
REMARK  225  A    between atoms: _531  and  _532
REMARK  226  A    between atoms: _535  and  _537
REMARK  227  A    between atoms: _537  and  _538
REMARK  228  A    between atoms: _537  and  _540
REMARK  229  A    between atoms: _540  and  _541
REMARK  230  A    between atoms: _541  and  _542
REMARK                            x       y       z     vdW  Elec       q    Type
REMARK                         _______ _______ _______ _____ _____    ______ ____
ROOT
ATOM      1  C   GLY A   1      11.048  15.453  55.117  0.00  0.00    +0.240 C 
ATOM      2  O   GLY A   1      10.553  14.521  55.762  0.00  0.00    -0.274 OA
ATOM      3  N   ALA A   2      10.607  15.814  53.912  0.00  0.00    -0.298 N 
ATOM      4  H   ALA A   2      11.054  16.620  53.430  0.00  0.00    +0.150 HD
ENDROOT
BRANCH   3   5
ATOM      5  CA  ALA A   2       9.507  15.104  53.248  0.00  0.00    +0.137 C 
ATOM      6  CB  ALA A   2       8.166  15.554  53.821  0.00  0.00    +0.030 C 
BRANCH   5   7
ATOM      7  C   ALA A   2       9.499  15.232  51.714  0.00  0.00    +0.227 C 
ATOM      8  O   ALA A   2       9.285  14.238  51.021  0.00  0.00    -0.286 OA
ENDBRANCH   5   7
ENDBRANCH   3   5
BRANCH   1   9
ATOM      9  CA  GLY A   1      12.220  16.235  55.690  0.00  0.00    +0.169 C 
BRANCH   9  10
ATOM     10  N   GLY A   1      12.314  17.607  55.210  0.00  0.00    -0.236 NA
ATOM     11  H   GLY A   1      13.097  17.865  54.576  0.00  0.00    +0.142 HD
ENDBRANCH   9  10
ENDBRANCH   1   9
TORSDOF 4
REMARK  Name = ../refined-set-2016/3cdb/3cdb_pocket.pdb
REMARK  230 active torsions:
REMARK  status: ('A' for Active; 'I' for Inactive)
REMARK    1  A    between atoms: _1  and  _3
REMARK    2  A    between atoms: _3  and  _4
REMARK    3  A    between atoms: _3  and  _6
REMARK    4  A    between atoms: _6  and  _7
REMARK    5  A    between atoms: _10  and  _12
REMARK    6  A    between atoms: _12  and  _13
REMARK    7  A    between atoms: _12  and  _15
REMARK    8  A    between atoms: _15  and  _16
REMARK    9  A    between atoms: _16  and  _17
REMARK   10  A    between atoms: _20  and  _22
REMARK   11  A    between atoms: _22  and  _23
REMARK   12  A    between atoms: _25  and  _27
REMARK   13  A    between atoms: _27  and  _28
REMARK   14  A    between atoms: _27  and  _30
REMARK   15  A    between atoms: _32  and  _34
REMARK   16  A    between atoms: _34  and  _35
REMARK   17  A    between atoms: _34  and  _37
REMARK   18  A    between atoms: _37  and  _38
REMARK   19  A    between atoms: _41  and  _43
REMARK   20  A    between atoms: _43  and  _44
REMARK   21  A    between atoms: _43  and  _46
REMARK   22  A    between atoms: _49  and  _51
REMARK   23  A    between atoms: _51  and  _52
REMARK   24  A    between atoms: _55  and  _57
REMARK   25  A    between atoms: _57  and  _58
REMARK   26  A    between atoms: _57  and  _60
REMARK   27  A    between atoms: _60  and  _61
REMARK   28  A    between atoms: _63  and  _65
REMARK   29  A    between atoms: _65  and  _66
REMARK   30  A    between atoms: _65  and  _68
REMARK   31  A    between atoms: _68  and  _69
REMARK   32  A    between atoms: _72  and  _74
REMARK   33  A    between atoms: _74  and  _75
REMARK   34  A    between atoms: _74  and  _77
REMARK   35  A    between atoms: _77  and  _78
REMARK   36  A    between atoms: _78  and  _79
REMARK   37  A    between atoms: _79  and  _80
REMARK   38  A    between atoms: _89  and  _91
REMARK   39  A    between atoms: _91  and  _92
REMARK   40  A    between atoms: _91  and  _94
REMARK   41  A    between atoms: _94  and  _95
REMARK   42  A    between atoms: _95  and  _96
REMARK   43  A    between atoms: _96  and  _97
REMARK   44  A    between atoms: _97  and  _98
REMARK   45  A    between atoms: _102  and  _104
REMARK   46  A    between atoms: _104  and  _105
REMARK   47  A    between atoms: _104  and  _107
REMARK   48  A    between atoms: _107  and  _108
REMARK   49  A    between atoms: _113  and  _115
REMARK   50  A    between atoms: _115  and  _116
REMARK   51  A    between atoms: _115  and  _118
REMARK   52  A    between atoms: _118  and  _119
REMARK   53  A    between atoms: _124  and  _126
REMARK   54  A    between atoms: _126  and  _127
REMARK   55  A    between atoms: _130  and  _132
REMARK   56  A    between atoms: _132  and  _133
REMARK   57  A    between atoms: _132  and  _135
REMARK   58  A    between atoms: _135  and  _136
REMARK   59  A    between atoms: _141  and  _143
REMARK   60  A    between atoms: _143  and  _144
REMARK   61  A    between atoms: _147  and  _149
REMARK   62  A    between atoms: _149  and  _150
REMARK   63  A    between atoms: _153  and  _155
REMARK   64  A    between atoms: _155  and  _156
REMARK   65  A    between atoms: _155  and  _158
REMARK   66  A    between atoms: _158  and  _159
REMARK   67  A    between atoms: _164  and  _166
REMARK   68  A    between atoms: _166  and  _167
REMARK   69  A    between atoms: _166  and  _169
REMARK   70  A    between atoms: _169  and  _170
REMARK   71  A    between atoms: _173  and  _175
REMARK   72  A    between atoms: _175  and  _176
REMARK   73  A    between atoms: _178  and  _180
REMARK   74  A    between atoms: _180  and  _181
REMARK   75  A    between atoms: _180  and  _183
REMARK   76  A    between atoms: _183  and  _184
REMARK   77  A    between atoms: _184  and  _185
REMARK   78  A    between atoms: _188  and  _190
REMARK   79  A    between atoms: _190  and  _191
REMARK   80  A    between atoms: _190  and  _193
REMARK   81  A    between atoms: _193  and  _194
REMARK   82  A    between atoms: _196  and  _198
REMARK   83  A    between atoms: _198  and  _199
REMARK   84  A    between atoms: _198  and  _201
REMARK   85  A    between atoms: _201  and  _202
REMARK   86  A    between atoms: _205  and  _207
REMARK   87  A    between atoms: _207  and  _208
REMARK   88  A    between atoms: _207  and  _210
REMARK   89  A    between atoms: _210  and  _211
REMARK   90  A    between atoms: _211  and  _212
REMARK   91  A    between atoms: _214  and  _216
REMARK   92  A    between atoms: _216  and  _217
REMARK   93  A    between atoms: _220  and  _222
REMARK   94  A    between atoms: _222  and  _223
REMARK   95  A    between atoms: _226  and  _228
REMARK   96  A    between atoms: _228  and  _229
REMARK   97  A    between atoms: _228  and  _231
REMARK   98  A    between atoms: _231  and  _232
REMARK   99  A    between atoms: _235  and  _237
REMARK  100  A    between atoms: _237  and  _238
REMARK  101  A    between atoms: _241  and  _243
REMARK  102  A    between atoms: _243  and  _244
REMARK  103  A    between atoms: _247  and  _249
REMARK  104  A    between atoms: _249  and  _250
REMARK  105  A    between atoms: _252  and  _254
REMARK  106  A    between atoms: _254  and  _255
REMARK  107  A    between atoms: _254  and  _257
REMARK  108  A    between atoms: _257  and  _258
REMARK  109  A    between atoms: _263  and  _265
REMARK  110  A    between atoms: _265  and  _266
REMARK  111  A    between atoms: _268  and  _270
REMARK  112  A    between atoms: _270  and  _271
REMARK  113  A    between atoms: _274  and  _276
REMARK  114  A    between atoms: _276  and  _277
REMARK  115  A    between atoms: _276  and  _279
REMARK  116  A    between atoms: _279  and  _280
REMARK  117  A    between atoms: _280  and  _281
REMARK  118  A    between atoms: _284  and  _286
REMARK  119  A    between atoms: _286  and  _287
REMARK  120  A    between atoms: _286  and  _289
REMARK  121  A    between atoms: _289  and  _290
REMARK  122  A    between atoms: _293  and  _295
REMARK  123  A    between atoms: _295  and  _296
REMARK  124  A    between atoms: _295  and  _298
REMARK  125  A    between atoms: _298  and  _299
REMARK  126  A    between atoms: _299  and  _300
REMARK  127  A    between atoms: _300  and  _301
REMARK  128  A    between atoms: _310  and  _312
REMARK  129  A    between atoms: _312  and  _313
REMARK  130  A    between atoms: _316  and  _317
REMARK  131  A    between atoms: _322  and  _324
REMARK  132  A    between atoms: _324  and  _325
REMARK  133  A    between atoms: _324  and  _327
REMARK  134  A    between atoms: _327  and  _328
REMARK  135  A    between atoms: _328  and  _329
REMARK  136  A    between atoms: _331  and  _333
REMARK  137  A    between atoms: _333  and  _334
REMARK  138  A    between atoms: _333  and  _336
REMARK  139  A    between atoms: _336  and  _337
REMARK  140  A    between atoms: _337  and  _338
REMARK  141  A    between atoms: _340  and  _342
REMARK  142  A    between atoms: _342  and  _343
REMARK  143  A    between atoms: _342  and  _345
REMARK  144  A    between atoms: _345  and  _346
REMARK  145  A    between atoms: _351  and  _353
REMARK  146  A    between atoms: _353  and  _354
REMARK  147  A    between atoms: _353  and  _356
REMARK  148  A    between atoms: _356  and  _357
REMARK  149  A    between atoms: _360  and  _362
REMARK  150  A    between atoms: _362  and  _363
REMARK  151  A    between atoms: _362  and  _365
REMARK  152  A    between atoms: _365  and  _366
REMARK  153  A    between atoms: _368  and  _370
REMARK  154  A    between atoms: _370  and  _371
REMARK  155  A    between atoms: _370  and  _373
REMARK  156  A    between atoms: _373  and  _374
REMARK  157  A    between atoms: _374  and  _375
REMARK  158  A    between atoms: _375  and  _376
REMARK  159  A    between atoms: _376  and  _377
REMARK  160  A    between atoms: _381  and  _383
REMARK  161  A    between atoms: _383  and  _384
REMARK  162  A    between atoms: _383  and  _386
REMARK  163  A    between atoms: _386  and  _387
REMARK  164  A    between atoms: _390  and  _392
REMARK  165  A    between atoms: _392  and  _393
REMARK  166  A    between atoms: _392  and  _395
REMARK  167  A    between atoms: _395  and  _396
REMARK  168  A    between atoms: _396  and  _397
REMARK  169  A    between atoms: _400  and  _402
REMARK  170  A    between atoms: _402  and  _403
REMARK  171  A    between atoms: _406  and  _408
REMARK  172  A    between atoms: _408  and  _409
REMARK  173  A    between atoms: _408  and  _411
REMARK  174  A    between atoms: _414  and  _416
REMARK  175  A    between atoms: _416  and  _417
REMARK  176  A    between atoms: _416  and  _419
REMARK  177  A    between atoms: _419  and  _420
REMARK  178  A    between atoms: _422  and  _424
REMARK  179  A    between atoms: _424  and  _425
REMARK  180  A    between atoms: _427  and  _429
REMARK  181  A    between atoms: _429  and  _430
REMARK  182  A    between atoms: _429  and  _432
REMARK  183  A    between atoms: _432  and  _433
REMARK  184  A    between atoms: _438  and  _440
REMARK  185  A    between atoms: _440  and  _441
REMARK  186  A    between atoms: _440  and  _443
REMARK  187  A    between atoms: _443  and  _444
REMARK  188  A    between atoms: _449  and  _450
REMARK  189  A    between atoms: _452  and  _454
REMARK  190  A    between atoms: _454  and  _455
REMARK  191  A    between atoms: _454  and  _457
REMARK  192  A    between atoms: _459  and  _461
REMARK  193  A    between atoms: _461  and  _462
REMARK  194  A    between atoms: _461  and  _464
REMARK  195  A    between atoms: _464  and  _465
REMARK  196  A    between atoms: _468  and  _470
REMARK  197  A    between atoms: _470  and  _471
REMARK  198  A    between atoms: _470  and  _473
REMARK  199  A    between atoms: _473  and  _474
REMARK  200  A    between atoms: _477  and  _479
REMARK  201  A    between atoms: _479  and  _480
REMARK  202  A    between atoms: _479  and  _482
REMARK  203  A    between atoms: _482  and  _483
REMARK  204  A    between atoms: _483  and  _484
REMARK  205  A    between atoms: _484  and  _485
REMARK  206  A    between atoms: _485  and  _486
REMARK  207  A    between atoms: _490  and  _492
REMARK  208  A    between atoms: _492  and  _493
REMARK  209  A    between atoms: _492  and  _495
REMARK  210  A    between atoms: _495  and  _496
REMARK  211  A    between atoms: _496  and  _497
REMARK  212  A    between atoms: _497  and  _498
REMARK  213  A    between atoms: _498  and  _499
REMARK  214  A    between atoms: _503  and  _505
REMARK  215  A    between atoms: _505  and  _506
REMARK  216  A    between atoms: _505  and  _508
REMARK  217  A    between atoms: _508  and  _509
REMARK  218  A    between atoms: _509  and  _510
REMARK  219  A    between atoms: _510  and  _511
REMARK  220  A    between atoms: _520  and  _522
REMARK  221  A    between atoms: _522  and  _523
REMARK  222  A    between atoms: _522  and  _525
REMARK  223  A    between atoms: _525  and  _526
REMARK  224  A    between atoms: _529  and  _531
REMARK  225  A    between atoms: _531  and  _532
REMARK  226  A    between atoms: _535  and  _537
REMARK  227  A    between atoms: _537  and  _538
REMARK  228  A    between atoms: _537  and  _540
REMARK  229  A    between atoms: _540  and  _541
REMARK  230  A    between atoms: _541  and  _542
REMARK                            x       y       z     vdW  Elec       q    Type
REMARK                         _______ _______ _______ _____ _____    ______ ____
ROOT
ATOM      1  CA  GLU A   1      16.427  19.182  50.664  0.00  0.00    +0.134 C 
ENDROOT
BRANCH   1   2
ATOM      2  N   GLU A   1      15.284  18.835  49.806  0.00  0.00    -0.239 NA
ATOM      3  H   GLU A   1      15.470  18.512  48.835  0.00  0.00    +0.142 HD
ENDBRANCH   1   2
BRANCH   1   4
ATOM      4  C   GLU A   1      17.283  20.274  50.020  0.00  0.00    +0.224 C 
ATOM      5  O   GLU A   1      17.084  20.609  48.852  0.00  0.00    -0.287 OA
ENDBRANCH   1   4
BRANCH   1   6
ATOM      6  CB  GLU A   1      17.292  17.949  50.950  0.00  0.00    +0.037 C 
BRANCH   6   7
ATOM      7  CG  GLU A   1      16.519  16.733  51.438  0.00  0.00    +0.116 C 
BRANCH   7   8
ATOM      8  CD  GLU A   1      15.733  16.054  50.330  0.00  0.00    +0.365 C 
ATOM      9  OE2 GLU A   1      14.531  15.777  50.541  0.00  0.00    -0.246 OA
ATOM     10  OE1 GLU A   1      16.306  15.808  49.245  0.00  0.00    -0.246 OA
ENDBRANCH   7   8
ENDBRANCH   6   7
ENDBRANCH   1   6
TORSDOF 5
REMARK  Name = ../refined-set-2016/3cdb/3cdb_pocket.pdb
REMARK  230 active torsions:
REMARK  status: ('A' for Active; 'I' for Inactive)
REMARK    1  A    between atoms: _1  and  _3
REMARK    2  A    between atoms: _3  and  _4
REMARK    3  A    between atoms: _3  and  _6
REMARK    4  A    between atoms: _6  and  _7
REMARK    5  A    between atoms: _10  and  _12
REMARK    6  A    between atoms: _12  and  _13
REMARK    7  A    between atoms: _12  and  _15
REMARK    8  A    between atoms: _15  and  _16
REMARK    9  A    between atoms: _16  and  _17
REMARK   10  A    between atoms: _20  and  _22
REMARK   11  A    between atoms: _22  and  _23
REMARK   12  A    between atoms: _25  and  _27
REMARK   13  A    between atoms: _27  and  _28
REMARK   14  A    between atoms: _27  and  _30
REMARK   15  A    between atoms: _32  and  _34
REMARK   16  A    between atoms: _34  and  _35
REMARK   17  A    between atoms: _34  and  _37
REMARK   18  A    between atoms: _37  and  _38
REMARK   19  A    between atoms: _41  and  _43
REMARK   20  A    between atoms: _43  and  _44
REMARK   21  A    between atoms: _43  and  _46
REMARK   22  A    between atoms: _49  and  _51
REMARK   23  A    between atoms: _51  and  _52
REMARK   24  A    between atoms: _55  and  _57
REMARK   25  A    between atoms: _57  and  _58
REMARK   26  A    between atoms: _57  and  _60
REMARK   27  A    between atoms: _60  and  _61
REMARK   28  A    between atoms: _63  and  _65
REMARK   29  A    between atoms: _65  and  _66
REMARK   30  A    between atoms: _65  and  _68
REMARK   31  A    between atoms: _68  and  _69
REMARK   32  A    between atoms: _72  and  _74
REMARK   33  A    between atoms: _74  and  _75
REMARK   34  A    between atoms: _74  and  _77
REMARK   35  A    between atoms: _77  and  _78
REMARK   36  A    between atoms: _78  and  _79
REMARK   37  A    between atoms: _79  and  _80
REMARK   38  A    between atoms: _89  and  _91
REMARK   39  A    between atoms: _91  and  _92
REMARK   40  A    between atoms: _91  and  _94
REMARK   41  A    between atoms: _94  and  _95
REMARK   42  A    between atoms: _95  and  _96
REMARK   43  A    between atoms: _96  and  _97
REMARK   44  A    between atoms: _97  and  _98
REMARK   45  A    between atoms: _102  and  _104
REMARK   46  A    between atoms: _104  and  _105
REMARK   47  A    between atoms: _104  and  _107
REMARK   48  A    between atoms: _107  and  _108
REMARK   49  A    between atoms: _113  and  _115
REMARK   50  A    between atoms: _115  and  _116
REMARK   51  A    between atoms: _115  and  _118
REMARK   52  A    between atoms: _118  and  _119
REMARK   53  A    between atoms: _124  and  _126
REMARK   54  A    between atoms: _126  and  _127
REMARK   55  A    between atoms: _130  and  _132
REMARK   56  A    between atoms: _132  and  _133
REMARK   57  A    between atoms: _132  and  _135
REMARK   58  A    between atoms: _135  and  _136
REMARK   59  A    between atoms: _141  and  _143
REMARK   60  A    between atoms: _143  and  _144
REMARK   61  A    between atoms: _147  and  _149
REMARK   62  A    between atoms: _149  and  _150
REMARK   63  A    between atoms: _153  and  _155
REMARK   64  A    between atoms: _155  and  _156
REMARK   65  A    between atoms: _155  and  _158
REMARK   66  A    between atoms: _158  and  _159
REMARK   67  A    between atoms: _164  and  _166
REMARK   68  A    between atoms: _166  and  _167
REMARK   69  A    between atoms: _166  and  _169
REMARK   70  A    between atoms: _169  and  _170
REMARK   71  A    between atoms: _173  and  _175
REMARK   72  A    between atoms: _175  and  _176
REMARK   73  A    between atoms: _178  and  _180
REMARK   74  A    between atoms: _180  and  _181
REMARK   75  A    between atoms: _180  and  _183
REMARK   76  A    between atoms: _183  and  _184
REMARK   77  A    between atoms: _184  and  _185
REMARK   78  A    between atoms: _188  and  _190
REMARK   79  A    between atoms: _190  and  _191
REMARK   80  A    between atoms: _190  and  _193
REMARK   81  A    between atoms: _193  and  _194
REMARK   82  A    between atoms: _196  and  _198
REMARK   83  A    between atoms: _198  and  _199
REMARK   84  A    between atoms: _198  and  _201
REMARK   85  A    between atoms: _201  and  _202
REMARK   86  A    between atoms: _205  and  _207
REMARK   87  A    between atoms: _207  and  _208
REMARK   88  A    between atoms: _207  and  _210
REMARK   89  A    between atoms: _210  and  _211
REMARK   90  A    between atoms: _211  and  _212
REMARK   91  A    between atoms: _214  and  _216
REMARK   92  A    between atoms: _216  and  _217
REMARK   93  A    between atoms: _220  and  _222
REMARK   94  A    between atoms: _222  and  _223
REMARK   95  A    between atoms: _226  and  _228
REMARK   96  A    between atoms: _228  and  _229
REMARK   97  A    between atoms: _228  and  _231
REMARK   98  A    between atoms: _231  and  _232
REMARK   99  A    between atoms: _235  and  _237
REMARK  100  A    between atoms: _237  and  _238
REMARK  101  A    between atoms: _241  and  _243
REMARK  102  A    between atoms: _243  and  _244
REMARK  103  A    between atoms: _247  and  _249
REMARK  104  A    between atoms: _249  and  _250
REMARK  105  A    between atoms: _252  and  _254
REMARK  106  A    between atoms: _254  and  _255
REMARK  107  A    between atoms: _254  and  _257
REMARK  108  A    between atoms: _257  and  _258
REMARK  109  A    between atoms: _263  and  _265
REMARK  110  A    between atoms: _265  and  _266
REMARK  111  A    between atoms: _268  and  _270
REMARK  112  A    between atoms: _270  and  _271
REMARK  113  A    between atoms: _274  and  _276
REMARK  114  A    between atoms: _276  and  _277
REMARK  115  A    between atoms: _276  and  _279
REMARK  116  A    between atoms: _279  and  _280
REMARK  117  A    between atoms: _280  and  _281
REMARK  118  A    between atoms: _284  and  _286
REMARK  119  A    between atoms: _286  and  _287
REMARK  120  A    between atoms: _286  and  _289
REMARK  121  A    between atoms: _289  and  _290
REMARK  122  A    between atoms: _293  and  _295
REMARK  123  A    between atoms: _295  and  _296
REMARK  124  A    between atoms: _295  and  _298
REMARK  125  A    between atoms: _298  and  _299
REMARK  126  A    between atoms: _299  and  _300
REMARK  127  A    between atoms: _300  and  _301
REMARK  128  A    between atoms: _310  and  _312
REMARK  129  A    between atoms: _312  and  _313
REMARK  130  A    between atoms: _316  and  _317
REMARK  131  A    between atoms: _322  and  _324
REMARK  132  A    between atoms: _324  and  _325
REMARK  133  A    between atoms: _324  and  _327
REMARK  134  A    between atoms: _327  and  _328
REMARK  135  A    between atoms: _328  and  _329
REMARK  136  A    between atoms: _331  and  _333
REMARK  137  A    between atoms: _333  and  _334
REMARK  138  A    between atoms: _333  and  _336
REMARK  139  A    between atoms: _336  and  _337
REMARK  140  A    between atoms: _337  and  _338
REMARK  141  A    between atoms: _340  and  _342
REMARK  142  A    between atoms: _342  and  _343
REMARK  143  A    between atoms: _342  and  _345
REMARK  144  A    between atoms: _345  and  _346
REMARK  145  A    between atoms: _351  and  _353
REMARK  146  A    between atoms: _353  and  _354
REMARK  147  A    between atoms: _353  and  _356
REMARK  148  A    between atoms: _356  and  _357
REMARK  149  A    between atoms: _360  and  _362
REMARK  150  A    between atoms: _362  and  _363
REMARK  151  A    between atoms: _362  and  _365
REMARK  152  A    between atoms: _365  and  _366
REMARK  153  A    between atoms: _368  and  _370
REMARK  154  A    between atoms: _370  and  _371
REMARK  155  A    between atoms: _370  and  _373
REMARK  156  A    between atoms: _373  and  _374
REMARK  157  A    between atoms: _374  and  _375
REMARK  158  A    between atoms: _375  and  _376
REMARK  159  A    between atoms: _376  and  _377
REMARK  160  A    between atoms: _381  and  _383
REMARK  161  A    between atoms: _383  and  _384
REMARK  162  A    between atoms: _383  and  _386
REMARK  163  A    between atoms: _386  and  _387
REMARK  164  A    between atoms: _390  and  _392
REMARK  165  A    between atoms: _392  and  _393
REMARK  166  A    between atoms: _392  and  _395
REMARK  167  A    between atoms: _395  and  _396
REMARK  168  A    between atoms: _396  and  _397
REMARK  169  A    between atoms: _400  and  _402
REMARK  170  A    between atoms: _402  and  _403
REMARK  171  A    between atoms: _406  and  _408
REMARK  172  A    between atoms: _408  and  _409
REMARK  173  A    between atoms: _408  and  _411
REMARK  174  A    between atoms: _414  and  _416
REMARK  175  A    between atoms: _416  and  _417
REMARK  176  A    between atoms: _416  and  _419
REMARK  177  A    between atoms: _419  and  _420
REMARK  178  A    between atoms: _422  and  _424
REMARK  179  A    between atoms: _424  and  _425
REMARK  180  A    between atoms: _427  and  _429
REMARK  181  A    between atoms: _429  and  _430
REMARK  182  A    between atoms: _429  and  _432
REMARK  183  A    between atoms: _432  and  _433
REMARK  184  A    between atoms: _438  and  _440
REMARK  185  A    between atoms: _440  and  _441
REMARK  186  A    between atoms: _440  and  _443
REMARK  187  A    between atoms: _443  and  _444
REMARK  188  A    between atoms: _449  and  _450
REMARK  189  A    between atoms: _452  and  _454
REMARK  190  A    between atoms: _454  and  _455
REMARK  191  A    between atoms: _454  and  _457
REMARK  192  A    between atoms: _459  and  _461
REMARK  193  A    between atoms: _461  and  _462
REMARK  194  A    between atoms: _461  and  _464
REMARK  195  A    between atoms: _464  and  _465
REMARK  196  A    between atoms: _468  and  _470
REMARK  197  A    between atoms: _470  and  _471
REMARK  198  A    between atoms: _470  and  _473
REMARK  199  A    between atoms: _473  and  _474
REMARK  200  A    between atoms: _477  and  _479
REMARK  201  A    between atoms: _479  and  _480
REMARK  202  A    between atoms: _479  and  _482
REMARK  203  A    between atoms: _482  and  _483
REMARK  204  A    between atoms: _483  and  _484
REMARK  205  A    between atoms: _484  and  _485
REMARK  206  A    between atoms: _485  and  _486
REMARK  207  A    between atoms: _490  and  _492
REMARK  208  A    between atoms: _492  and  _493
REMARK  209  A    between atoms: _492  and  _495
REMARK  210  A    between atoms: _495  and  _496
REMARK  211  A    between atoms: _496  and  _497
REMARK  212  A    between atoms: _497  and  _498
REMARK  213  A    between atoms: _498  and  _499
REMARK  214  A    between atoms: _503  and  _505
REMARK  215  A    between atoms: _505  and  _506
REMARK  216  A    between atoms: _505  and  _508
REMARK  217  A    between atoms: _508  and  _509
REMARK  218  A    between atoms: _509  and  _510
REMARK  219  A    between atoms: _510  and  _511
REMARK  220  A    between atoms: _520  and  _522
REMARK  221  A    between atoms: _522  and  _523
REMARK  222  A    between atoms: _522  and  _525
REMARK  223  A    between atoms: _525  and  _526
REMARK  224  A    between atoms: _529  and  _531
REMARK  225  A    between atoms: _531  and  _532
REMARK  226  A    between atoms: _535  and  _537
REMARK  227  A    between atoms: _537  and  _538
REMARK  228  A    between atoms: _537  and  _540
REMARK  229  A    between atoms: _540  and  _541
REMARK  230  A    between atoms: _541  and  _542
REMARK                            x       y       z     vdW  Elec       q    Type
REMARK                         _______ _______ _______ _____ _____    ______ ____
ROOT
ATOM      1  CA  ARG A   2       7.493  -2.828  41.493  0.00  0.00    +0.149 C 
ENDROOT
BRANCH   1   3
ATOM      2  C   THR A   1       5.364  -1.792  40.908  0.00  0.00    +0.241 C 
ATOM      3  N   ARG A   2       6.066  -2.850  41.286  0.00  0.00    -0.297 N 
ATOM      4  H   ARG A   2       5.560  -3.745  41.442  0.00  0.00    +0.150 HD
ATOM      5  O   THR A   1       5.776  -0.638  40.949  0.00  0.00    -0.274 OA
BRANCH   2   6
ATOM      6  CA  THR A   1       3.964  -2.122  40.437  0.00  0.00    +0.172 C 
BRANCH   6   7
ATOM      7  N   THR A   1       3.067  -0.975  40.457  0.00  0.00    -0.236 NA
ATOM      8  H   THR A   1       3.349  -0.091  39.987  0.00  0.00    +0.142 HD
ENDBRANCH   6   7
BRANCH   6   9
ATOM      9  CB  THR A   1       4.058  -2.753  39.025  0.00  0.00    +0.135 C 
ATOM     10  CG2 THR A   1       2.686  -3.093  38.468  0.00  0.00    +0.034 C 
BRANCH   9  11
ATOM     11  OG1 THR A   1       4.594  -1.802  38.101  0.00  0.00    -0.383 OA
ATOM     12  HG1 THR A   1       4.651  -2.213  37.202  0.00  0.00    +0.210 HD
ENDBRANCH   9  11
ENDBRANCH   6   9
ENDBRANCH   2   6
ENDBRANCH   1   3
BRANCH   1  13
ATOM     13  C   ARG A   2       8.067  -4.124  40.930  0.00  0.00    +0.241 C 
ATOM     14  O   ARG A   2       7.493  -5.198  41.114  0.00  0.00    -0.273 OA
ATOM     15  N   GLY A   3       9.214  -4.015  40.266  0.00  0.00    -0.295 N 
ATOM     16  H   GLY A   3       9.709  -3.100  40.268  0.00  0.00    +0.150 HD
BRANCH  15  17
ATOM     17  CA  GLY A   3       9.800  -5.124  39.540  0.00  0.00    +0.176 C 
BRANCH  17  18
ATOM     18  C   GLY A   3      11.241  -5.363  39.935  0.00  0.00    +0.246 C 
ATOM     19  N   PRO A   4      11.469  -5.912  41.130  0.00  0.00    -0.273 N 
ATOM     20  CD  PRO A   4      10.468  -6.220  42.167  0.00  0.00    +0.094 C 
ATOM     21  CG  PRO A   4      11.182  -7.262  42.965  0.00  0.00    +0.024 C 
ATOM     22  CB  PRO A   4      12.587  -6.796  42.994  0.00  0.00    +0.030 C 
ATOM     23  CA  PRO A   4      12.824  -6.255  41.582  0.00  0.00    +0.140 C 
ATOM     24  O   GLY A   3      12.141  -5.036  39.162  0.00  0.00    -0.273 OA
BRANCH  23  25
ATOM     25  C   PRO A   4      13.499  -7.331  40.742  0.00  0.00    +0.227 C 
ATOM     26  O   PRO A   4      12.821  -8.157  40.134  0.00  0.00    -0.286 OA
ENDBRANCH  23  25
ENDBRANCH  17  18
ENDBRANCH  15  17
ENDBRANCH   1  13
BRANCH   1  27
ATOM     27  CB  ARG A   2       7.803  -2.711  42.974  0.00  0.00    +0.033 C 
BRANCH  27  28
ATOM     28  CG  ARG A   2       9.260  -2.429  43.275  0.00  0.00    +0.045 C 
BRANCH  28  29
ATOM     29  CD  ARG A   2       9.551  -0.963  43.469  0.00  0.00    +0.174 C 
BRANCH  29  30
ATOM     30  NE  ARG A   2      10.213  -0.372  42.319  0.00  0.00    -0.265 N 
ATOM     31  CZ  ARG A   2      10.438   0.929  42.161  0.00  0.00    +0.342 C 
ATOM     32  NH2 ARG A   2      10.078   1.816  43.087  0.00  0.00    -0.292 N 
ATOM     33 HH21 ARG A   2       9.609   1.497  43.959  0.00  0.00    +0.255 HD
ATOM     34 HH22 ARG A   2      10.266   2.828  42.938  0.00  0.00    +0.255 HD
ATOM     35  NH1 ARG A   2      11.050   1.336  41.058  0.00  0.00    -0.292 N 
ATOM     36 HH11 ARG A   2      11.238   2.348  40.911  0.00  0.00    +0.255 HD
ATOM     37 HH12 ARG A   2      11.343   0.643  40.340  0.00  0.00    +0.255 HD
ATOM     38  HE  ARG A   2      10.534  -1.012  41.565  0.00  0.00    +0.259 HD
ENDBRANCH  29  30
ENDBRANCH  28  29
ENDBRANCH  27  28
ENDBRANCH   1  27
TORSDOF 13
REMARK  Name = ../refined-set-2016/3cdb/3cdb_pocket.pdb
REMARK  230 active torsions:
REMARK  status: ('A' for Active; 'I' for Inactive)
REMARK    1  A    between atoms: _1  and  _3
REMARK    2  A    between atoms: _3  and  _4
REMARK    3  A    between atoms: _3  and  _6
REMARK    4  A    between atoms: _6  and  _7
REMARK    5  A    between atoms: _10  and  _12
REMARK    6  A    between atoms: _12  and  _13
REMARK    7  A    between atoms: _12  and  _15
REMARK    8  A    between atoms: _15  and  _16
REMARK    9  A    between atoms: _16  and  _17
REMARK   10  A    between atoms: _20  and  _22
REMARK   11  A    between atoms: _22  and  _23
REMARK   12  A    between atoms: _25  and  _27
REMARK   13  A    between atoms: _27  and  _28
REMARK   14  A    between atoms: _27  and  _30
REMARK   15  A    between atoms: _32  and  _34
REMARK   16  A    between atoms: _34  and  _35
REMARK   17  A    between atoms: _34  and  _37
REMARK   18  A    between atoms: _37  and  _38
REMARK   19  A    between atoms: _41  and  _43
REMARK   20  A    between atoms: _43  and  _44
REMARK   21  A    between atoms: _43  and  _46
REMARK   22  A    between atoms: _49  and  _51
REMARK   23  A    between atoms: _51  and  _52
REMARK   24  A    between atoms: _55  and  _57
REMARK   25  A    between atoms: _57  and  _58
REMARK   26  A    between atoms: _57  and  _60
REMARK   27  A    between atoms: _60  and  _61
REMARK   28  A    between atoms: _63  and  _65
REMARK   29  A    between atoms: _65  and  _66
REMARK   30  A    between atoms: _65  and  _68
REMARK   31  A    between atoms: _68  and  _69
REMARK   32  A    between atoms: _72  and  _74
REMARK   33  A    between atoms: _74  and  _75
REMARK   34  A    between atoms: _74  and  _77
REMARK   35  A    between atoms: _77  and  _78
REMARK   36  A    between atoms: _78  and  _79
REMARK   37  A    between atoms: _79  and  _80
REMARK   38  A    between atoms: _89  and  _91
REMARK   39  A    between atoms: _91  and  _92
REMARK   40  A    between atoms: _91  and  _94
REMARK   41  A    between atoms: _94  and  _95
REMARK   42  A    between atoms: _95  and  _96
REMARK   43  A    between atoms: _96  and  _97
REMARK   44  A    between atoms: _97  and  _98
REMARK   45  A    between atoms: _102  and  _104
REMARK   46  A    between atoms: _104  and  _105
REMARK   47  A    between atoms: _104  and  _107
REMARK   48  A    between atoms: _107  and  _108
REMARK   49  A    between atoms: _113  and  _115
REMARK   50  A    between atoms: _115  and  _116
REMARK   51  A    between atoms: _115  and  _118
REMARK   52  A    between atoms: _118  and  _119
REMARK   53  A    between atoms: _124  and  _126
REMARK   54  A    between atoms: _126  and  _127
REMARK   55  A    between atoms: _130  and  _132
REMARK   56  A    between atoms: _132  and  _133
REMARK   57  A    between atoms: _132  and  _135
REMARK   58  A    between atoms: _135  and  _136
REMARK   59  A    between atoms: _141  and  _143
REMARK   60  A    between atoms: _143  and  _144
REMARK   61  A    between atoms: _147  and  _149
REMARK   62  A    between atoms: _149  and  _150
REMARK   63  A    between atoms: _153  and  _155
REMARK   64  A    between atoms: _155  and  _156
REMARK   65  A    between atoms: _155  and  _158
REMARK   66  A    between atoms: _158  and  _159
REMARK   67  A    between atoms: _164  and  _166
REMARK   68  A    between atoms: _166  and  _167
REMARK   69  A    between atoms: _166  and  _169
REMARK   70  A    between atoms: _169  and  _170
REMARK   71  A    between atoms: _173  and  _175
REMARK   72  A    between atoms: _175  and  _176
REMARK   73  A    between atoms: _178  and  _180
REMARK   74  A    between atoms: _180  and  _181
REMARK   75  A    between atoms: _180  and  _183
REMARK   76  A    between atoms: _183  and  _184
REMARK   77  A    between atoms: _184  and  _185
REMARK   78  A    between atoms: _188  and  _190
REMARK   79  A    between atoms: _190  and  _191
REMARK   80  A    between atoms: _190  and  _193
REMARK   81  A    between atoms: _193  and  _194
REMARK   82  A    between atoms: _196  and  _198
REMARK   83  A    between atoms: _198  and  _199
REMARK   84  A    between atoms: _198  and  _201
REMARK   85  A    between atoms: _201  and  _202
REMARK   86  A    between atoms: _205  and  _207
REMARK   87  A    between atoms: _207  and  _208
REMARK   88  A    between atoms: _207  and  _210
REMARK   89  A    between atoms: _210  and  _211
REMARK   90  A    between atoms: _211  and  _212
REMARK   91  A    between atoms: _214  and  _216
REMARK   92  A    between atoms: _216  and  _217
REMARK   93  A    between atoms: _220  and  _222
REMARK   94  A    between atoms: _222  and  _223
REMARK   95  A    between atoms: _226  and  _228
REMARK   96  A    between atoms: _228  and  _229
REMARK   97  A    between atoms: _228  and  _231
REMARK   98  A    between atoms: _231  and  _232
REMARK   99  A    between atoms: _235  and  _237
REMARK  100  A    between atoms: _237  and  _238
REMARK  101  A    between atoms: _241  and  _243
REMARK  102  A    between atoms: _243  and  _244
REMARK  103  A    between atoms: _247  and  _249
REMARK  104  A    between atoms: _249  and  _250
REMARK  105  A    between atoms: _252  and  _254
REMARK  106  A    between atoms: _254  and  _255
REMARK  107  A    between atoms: _254  and  _257
REMARK  108  A    between atoms: _257  and  _258
REMARK  109  A    between atoms: _263  and  _265
REMARK  110  A    between atoms: _265  and  _266
REMARK  111  A    between atoms: _268  and  _270
REMARK  112  A    between atoms: _270  and  _271
REMARK  113  A    between atoms: _274  and  _276
REMARK  114  A    between atoms: _276  and  _277
REMARK  115  A    between atoms: _276  and  _279
REMARK  116  A    between atoms: _279  and  _280
REMARK  117  A    between atoms: _280  and  _281
REMARK  118  A    between atoms: _284  and  _286
REMARK  119  A    between atoms: _286  and  _287
REMARK  120  A    between atoms: _286  and  _289
REMARK  121  A    between atoms: _289  and  _290
REMARK  122  A    between atoms: _293  and  _295
REMARK  123  A    between atoms: _295  and  _296
REMARK  124  A    between atoms: _295  and  _298
REMARK  125  A    between atoms: _298  and  _299
REMARK  126  A    between atoms: _299  and  _300
REMARK  127  A    between atoms: _300  and  _301
REMARK  128  A    between atoms: _310  and  _312
REMARK  129  A    between atoms: _312  and  _313
REMARK  130  A    between atoms: _316  and  _317
REMARK  131  A    between atoms: _322  and  _324
REMARK  132  A    between atoms: _324  and  _325
REMARK  133  A    between atoms: _324  and  _327
REMARK  134  A    between atoms: _327  and  _328
REMARK  135  A    between atoms: _328  and  _329
REMARK  136  A    between atoms: _331  and  _333
REMARK  137  A    between atoms: _333  and  _334
REMARK  138  A    between atoms: _333  and  _336
REMARK  139  A    between atoms: _336  and  _337
REMARK  140  A    between atoms: _337  and  _338
REMARK  141  A    between atoms: _340  and  _342
REMARK  142  A    between atoms: _342  and  _343
REMARK  143  A    between atoms: _342  and  _345
REMARK  144  A    between atoms: _345  and  _346
REMARK  145  A    between atoms: _351  and  _353
REMARK  146  A    between atoms: _353  and  _354
REMARK  147  A    between atoms: _353  and  _356
REMARK  148  A    between atoms: _356  and  _357
REMARK  149  A    between atoms: _360  and  _362
REMARK  150  A    between atoms: _362  and  _363
REMARK  151  A    between atoms: _362  and  _365
REMARK  152  A    between atoms: _365  and  _366
REMARK  153  A    between atoms: _368  and  _370
REMARK  154  A    between atoms: _370  and  _371
REMARK  155  A    between atoms: _370  and  _373
REMARK  156  A    between atoms: _373  and  _374
REMARK  157  A    between atoms: _374  and  _375
REMARK  158  A    between atoms: _375  and  _376
REMARK  159  A    between atoms: _376  and  _377
REMARK  160  A    between atoms: _381  and  _383
REMARK  161  A    between atoms: _383  and  _384
REMARK  162  A    between atoms: _383  and  _386
REMARK  163  A    between atoms: _386  and  _387
REMARK  164  A    between atoms: _390  and  _392
REMARK  165  A    between atoms: _392  and  _393
REMARK  166  A    between atoms: _392  and  _395
REMARK  167  A    between atoms: _395  and  _396
REMARK  168  A    between atoms: _396  and  _397
REMARK  169  A    between atoms: _400  and  _402
REMARK  170  A    between atoms: _402  and  _403
REMARK  171  A    between atoms: _406  and  _408
REMARK  172  A    between atoms: _408  and  _409
REMARK  173  A    between atoms: _408  and  _411
REMARK  174  A    between atoms: _414  and  _416
REMARK  175  A    between atoms: _416  and  _417
REMARK  176  A    between atoms: _416  and  _419
REMARK  177  A    between atoms: _419  and  _420
REMARK  178  A    between atoms: _422  and  _424
REMARK  179  A    between atoms: _424  and  _425
REMARK  180  A    between atoms: _427  and  _429
REMARK  181  A    between atoms: _429  and  _430
REMARK  182  A    between atoms: _429  and  _432
REMARK  183  A    between atoms: _432  and  _433
REMARK  184  A    between atoms: _438  and  _440
REMARK  185  A    between atoms: _440  and  _441
REMARK  186  A    between atoms: _440  and  _443
REMARK  187  A    between atoms: _443  and  _444
REMARK  188  A    between atoms: _449  and  _450
REMARK  189  A    between atoms: _452  and  _454
REMARK  190  A    between atoms: _454  and  _455
REMARK  191  A    between atoms: _454  and  _457
REMARK  192  A    between atoms: _459  and  _461
REMARK  193  A    between atoms: _461  and  _462
REMARK  194  A    between atoms: _461  and  _464
REMARK  195  A    between atoms: _464  and  _465
REMARK  196  A    between atoms: _468  and  _470
REMARK  197  A    between atoms: _470  and  _471
REMARK  198  A    between atoms: _470  and  _473
REMARK  199  A    between atoms: _473  and  _474
REMARK  200  A    between atoms: _477  and  _479
REMARK  201  A    between atoms: _479  and  _480
REMARK  202  A    between atoms: _479  and  _482
REMARK  203  A    between atoms: _482  and  _483
REMARK  204  A    between atoms: _483  and  _484
REMARK  205  A    between atoms: _484  and  _485
REMARK  206  A    between atoms: _485  and  _486
REMARK  207  A    between atoms: _490  and  _492
REMARK  208  A    between atoms: _492  and  _493
REMARK  209  A    between atoms: _492  and  _495
REMARK  210  A    between atoms: _495  and  _496
REMARK  211  A    between atoms: _496  and  _497
REMARK  212  A    between atoms: _497  and  _498
REMARK  213  A    between atoms: _498  and  _499
REMARK  214  A    between atoms: _503  and  _505
REMARK  215  A    between atoms: _505  and  _506
REMARK  216  A    between atoms: _505  and  _508
REMARK  217  A    between atoms: _508  and  _509
REMARK  218  A    between atoms: _509  and  _510
REMARK  219  A    between atoms: _510  and  _511
REMARK  220  A    between atoms: _520  and  _522
REMARK  221  A    between atoms: _522  and  _523
REMARK  222  A    between atoms: _522  and  _525
REMARK  223  A    between atoms: _525  and  _526
REMARK  224  A    between atoms: _529  and  _531
REMARK  225  A    between atoms: _531  and  _532
REMARK  226  A    between atoms: _535  and  _537
REMARK  227  A    between atoms: _537  and  _538
REMARK  228  A    between atoms: _537  and  _540
REMARK  229  A    between atoms: _540  and  _541
REMARK  230  A    between atoms: _541  and  _542
REMARK                            x       y       z     vdW  Elec       q    Type
REMARK                         _______ _______ _______ _____ _____    ______ ____
ROOT
ATOM      1  CA  MET A   1       0.330   6.593  44.080  0.00  0.00    +0.134 C 
ENDROOT
BRANCH   1   2
ATOM      2  N   MET A   1      -0.308   7.074  45.306  0.00  0.00    -0.239 NA
ATOM      3  H   MET A   1       0.022   7.963  45.733  0.00  0.00    +0.142 HD
ENDBRANCH   1   2
BRANCH   1   4
ATOM      4  C   MET A   1       0.878   5.194  44.355  0.00  0.00    +0.224 C 
ATOM      5  O   MET A   1       0.598   4.251  43.611  0.00  0.00    -0.287 OA
ENDBRANCH   1   4
BRANCH   1   6
ATOM      6  CB  MET A   1       1.440   7.550  43.625  0.00  0.00    +0.037 C 
BRANCH   6   7
ATOM      7  CG  MET A   1       2.013   7.240  42.245  0.00  0.00    +0.059 C 
BRANCH   7   8
ATOM      8  SD  MET A   1       3.613   6.394  42.345  0.00  0.00    -0.139 S 
ATOM      9  CE  MET A   1       4.677   7.808  42.821  0.00  0.00    +0.069 C 
ENDBRANCH   7   8
ENDBRANCH   6   7
ENDBRANCH   1   6
TORSDOF 5
REMARK  Name = ../refined-set-2016/3cdb/3cdb_pocket.pdb
REMARK  230 active torsions:
REMARK  status: ('A' for Active; 'I' for Inactive)
REMARK    1  A    between atoms: _1  and  _3
REMARK    2  A    between atoms: _3  and  _4
REMARK    3  A    between atoms: _3  and  _6
REMARK    4  A    between atoms: _6  and  _7
REMARK    5  A    between atoms: _10  and  _12
REMARK    6  A    between atoms: _12  and  _13
REMARK    7  A    between atoms: _12  and  _15
REMARK    8  A    between atoms: _15  and  _16
REMARK    9  A    between atoms: _16  and  _17
REMARK   10  A    between atoms: _20  and  _22
REMARK   11  A    between atoms: _22  and  _23
REMARK   12  A    between atoms: _25  and  _27
REMARK   13  A    between atoms: _27  and  _28
REMARK   14  A    between atoms: _27  and  _30
REMARK   15  A    between atoms: _32  and  _34
REMARK   16  A    between atoms: _34  and  _35
REMARK   17  A    between atoms: _34  and  _37
REMARK   18  A    between atoms: _37  and  _38
REMARK   19  A    between atoms: _41  and  _43
REMARK   20  A    between atoms: _43  and  _44
REMARK   21  A    between atoms: _43  and  _46
REMARK   22  A    between atoms: _49  and  _51
REMARK   23  A    between atoms: _51  and  _52
REMARK   24  A    between atoms: _55  and  _57
REMARK   25  A    between atoms: _57  and  _58
REMARK   26  A    between atoms: _57  and  _60
REMARK   27  A    between atoms: _60  and  _61
REMARK   28  A    between atoms: _63  and  _65
REMARK   29  A    between atoms: _65  and  _66
REMARK   30  A    between atoms: _65  and  _68
REMARK   31  A    between atoms: _68  and  _69
REMARK   32  A    between atoms: _72  and  _74
REMARK   33  A    between atoms: _74  and  _75
REMARK   34  A    between atoms: _74  and  _77
REMARK   35  A    between atoms: _77  and  _78
REMARK   36  A    between atoms: _78  and  _79
REMARK   37  A    between atoms: _79  and  _80
REMARK   38  A    between atoms: _89  and  _91
REMARK   39  A    between atoms: _91  and  _92
REMARK   40  A    between atoms: _91  and  _94
REMARK   41  A    between atoms: _94  and  _95
REMARK   42  A    between atoms: _95  and  _96
REMARK   43  A    between atoms: _96  and  _97
REMARK   44  A    between atoms: _97  and  _98
REMARK   45  A    between atoms: _102  and  _104
REMARK   46  A    between atoms: _104  and  _105
REMARK   47  A    between atoms: _104  and  _107
REMARK   48  A    between atoms: _107  and  _108
REMARK   49  A    between atoms: _113  and  _115
REMARK   50  A    between atoms: _115  and  _116
REMARK   51  A    between atoms: _115  and  _118
REMARK   52  A    between atoms: _118  and  _119
REMARK   53  A    between atoms: _124  and  _126
REMARK   54  A    between atoms: _126  and  _127
REMARK   55  A    between atoms: _130  and  _132
REMARK   56  A    between atoms: _132  and  _133
REMARK   57  A    between atoms: _132  and  _135
REMARK   58  A    between atoms: _135  and  _136
REMARK   59  A    between atoms: _141  and  _143
REMARK   60  A    between atoms: _143  and  _144
REMARK   61  A    between atoms: _147  and  _149
REMARK   62  A    between atoms: _149  and  _150
REMARK   63  A    between atoms: _153  and  _155
REMARK   64  A    between atoms: _155  and  _156
REMARK   65  A    between atoms: _155  and  _158
REMARK   66  A    between atoms: _158  and  _159
REMARK   67  A    between atoms: _164  and  _166
REMARK   68  A    between atoms: _166  and  _167
REMARK   69  A    between atoms: _166  and  _169
REMARK   70  A    between atoms: _169  and  _170
REMARK   71  A    between atoms: _173  and  _175
REMARK   72  A    between atoms: _175  and  _176
REMARK   73  A    between atoms: _178  and  _180
REMARK   74  A    between atoms: _180  and  _181
REMARK   75  A    between atoms: _180  and  _183
REMARK   76  A    between atoms: _183  and  _184
REMARK   77  A    between atoms: _184  and  _185
REMARK   78  A    between atoms: _188  and  _190
REMARK   79  A    between atoms: _190  and  _191
REMARK   80  A    between atoms: _190  and  _193
REMARK   81  A    between atoms: _193  and  _194
REMARK   82  A    between atoms: _196  and  _198
REMARK   83  A    between atoms: _198  and  _199
REMARK   84  A    between atoms: _198  and  _201
REMARK   85  A    between atoms: _201  and  _202
REMARK   86  A    between atoms: _205  and  _207
REMARK   87  A    between atoms: _207  and  _208
REMARK   88  A    between atoms: _207  and  _210
REMARK   89  A    between atoms: _210  and  _211
REMARK   90  A    between atoms: _211  and  _212
REMARK   91  A    between atoms: _214  and  _216
REMARK   92  A    between atoms: _216  and  _217
REMARK   93  A    between atoms: _220  and  _222
REMARK   94  A    between atoms: _222  and  _223
REMARK   95  A    between atoms: _226  and  _228
REMARK   96  A    between atoms: _228  and  _229
REMARK   97  A    between atoms: _228  and  _231
REMARK   98  A    between atoms: _231  and  _232
REMARK   99  A    between atoms: _235  and  _237
REMARK  100  A    between atoms: _237  and  _238
REMARK  101  A    between atoms: _241  and  _243
REMARK  102  A    between atoms: _243  and  _244
REMARK  103  A    between atoms: _247  and  _249
REMARK  104  A    between atoms: _249  and  _250
REMARK  105  A    between atoms: _252  and  _254
REMARK  106  A    between atoms: _254  and  _255
REMARK  107  A    between atoms: _254  and  _257
REMARK  108  A    between atoms: _257  and  _258
REMARK  109  A    between atoms: _263  and  _265
REMARK  110  A    between atoms: _265  and  _266
REMARK  111  A    between atoms: _268  and  _270
REMARK  112  A    between atoms: _270  and  _271
REMARK  113  A    between atoms: _274  and  _276
REMARK  114  A    between atoms: _276  and  _277
REMARK  115  A    between atoms: _276  and  _279
REMARK  116  A    between atoms: _279  and  _280
REMARK  117  A    between atoms: _280  and  _281
REMARK  118  A    between atoms: _284  and  _286
REMARK  119  A    between atoms: _286  and  _287
REMARK  120  A    between atoms: _286  and  _289
REMARK  121  A    between atoms: _289  and  _290
REMARK  122  A    between atoms: _293  and  _295
REMARK  123  A    between atoms: _295  and  _296
REMARK  124  A    between atoms: _295  and  _298
REMARK  125  A    between atoms: _298  and  _299
REMARK  126  A    between atoms: _299  and  _300
REMARK  127  A    between atoms: _300  and  _301
REMARK  128  A    between atoms: _310  and  _312
REMARK  129  A    between atoms: _312  and  _313
REMARK  130  A    between atoms: _316  and  _317
REMARK  131  A    between atoms: _322  and  _324
REMARK  132  A    between atoms: _324  and  _325
REMARK  133  A    between atoms: _324  and  _327
REMARK  134  A    between atoms: _327  and  _328
REMARK  135  A    between atoms: _328  and  _329
REMARK  136  A    between atoms: _331  and  _333
REMARK  137  A    between atoms: _333  and  _334
REMARK  138  A    between atoms: _333  and  _336
REMARK  139  A    between atoms: _336  and  _337
REMARK  140  A    between atoms: _337  and  _338
REMARK  141  A    between atoms: _340  and  _342
REMARK  142  A    between atoms: _342  and  _343
REMARK  143  A    between atoms: _342  and  _345
REMARK  144  A    between atoms: _345  and  _346
REMARK  145  A    between atoms: _351  and  _353
REMARK  146  A    between atoms: _353  and  _354
REMARK  147  A    between atoms: _353  and  _356
REMARK  148  A    between atoms: _356  and  _357
REMARK  149  A    between atoms: _360  and  _362
REMARK  150  A    between atoms: _362  and  _363
REMARK  151  A    between atoms: _362  and  _365
REMARK  152  A    between atoms: _365  and  _366
REMARK  153  A    between atoms: _368  and  _370
REMARK  154  A    between atoms: _370  and  _371
REMARK  155  A    between atoms: _370  and  _373
REMARK  156  A    between atoms: _373  and  _374
REMARK  157  A    between atoms: _374  and  _375
REMARK  158  A    between atoms: _375  and  _376
REMARK  159  A    between atoms: _376  and  _377
REMARK  160  A    between atoms: _381  and  _383
REMARK  161  A    between atoms: _383  and  _384
REMARK  162  A    between atoms: _383  and  _386
REMARK  163  A    between atoms: _386  and  _387
REMARK  164  A    between atoms: _390  and  _392
REMARK  165  A    between atoms: _392  and  _393
REMARK  166  A    between atoms: _392  and  _395
REMARK  167  A    between atoms: _395  and  _396
REMARK  168  A    between atoms: _396  and  _397
REMARK  169  A    between atoms: _400  and  _402
REMARK  170  A    between atoms: _402  and  _403
REMARK  171  A    between atoms: _406  and  _408
REMARK  172  A    between atoms: _408  and  _409
REMARK  173  A    between atoms: _408  and  _411
REMARK  174  A    between atoms: _414  and  _416
REMARK  175  A    between atoms: _416  and  _417
REMARK  176  A    between atoms: _416  and  _419
REMARK  177  A    between atoms: _419  and  _420
REMARK  178  A    between atoms: _422  and  _424
REMARK  179  A    between atoms: _424  and  _425
REMARK  180  A    between atoms: _427  and  _429
REMARK  181  A    between atoms: _429  and  _430
REMARK  182  A    between atoms: _429  and  _432
REMARK  183  A    between atoms: _432  and  _433
REMARK  184  A    between atoms: _438  and  _440
REMARK  185  A    between atoms: _440  and  _441
REMARK  186  A    between atoms: _440  and  _443
REMARK  187  A    between atoms: _443  and  _444
REMARK  188  A    between atoms: _449  and  _450
REMARK  189  A    between atoms: _452  and  _454
REMARK  190  A    between atoms: _454  and  _455
REMARK  191  A    between atoms: _454  and  _457
REMARK  192  A    between atoms: _459  and  _461
REMARK  193  A    between atoms: _461  and  _462
REMARK  194  A    between atoms: _461  and  _464
REMARK  195  A    between atoms: _464  and  _465
REMARK  196  A    between atoms: _468  and  _470
REMARK  197  A    between atoms: _470  and  _471
REMARK  198  A    between atoms: _470  and  _473
REMARK  199  A    between atoms: _473  and  _474
REMARK  200  A    between atoms: _477  and  _479
REMARK  201  A    between atoms: _479  and  _480
REMARK  202  A    between atoms: _479  and  _482
REMARK  203  A    between atoms: _482  and  _483
REMARK  204  A    between atoms: _483  and  _484
REMARK  205  A    between atoms: _484  and  _485
REMARK  206  A    between atoms: _485  and  _486
REMARK  207  A    between atoms: _490  and  _492
REMARK  208  A    between atoms: _492  and  _493
REMARK  209  A    between atoms: _492  and  _495
REMARK  210  A    between atoms: _495  and  _496
REMARK  211  A    between atoms: _496  and  _497
REMARK  212  A    between atoms: _497  and  _498
REMARK  213  A    between atoms: _498  and  _499
REMARK  214  A    between atoms: _503  and  _505
REMARK  215  A    between atoms: _505  and  _506
REMARK  216  A    between atoms: _505  and  _508
REMARK  217  A    between atoms: _508  and  _509
REMARK  218  A    between atoms: _509  and  _510
REMARK  219  A    between atoms: _510  and  _511
REMARK  220  A    between atoms: _520  and  _522
REMARK  221  A    between atoms: _522  and  _523
REMARK  222  A    between atoms: _522  and  _525
REMARK  223  A    between atoms: _525  and  _526
REMARK  224  A    between atoms: _529  and  _531
REMARK  225  A    between atoms: _531  and  _532
REMARK  226  A    between atoms: _535  and  _537
REMARK  227  A    between atoms: _537  and  _538
REMARK  228  A    between atoms: _537  and  _540
REMARK  229  A    between atoms: _540  and  _541
REMARK  230  A    between atoms: _541  and  _542
REMARK                            x       y       z     vdW  Elec       q    Type
REMARK                         _______ _______ _______ _____ _____    ______ ____
ROOT
ATOM      1  C   MET A   1       6.260   2.966  46.914  0.00  0.00    +0.238 C 
ATOM      2  N   ASN A   2       6.034   3.807  47.921  0.00  0.00    -0.298 N 
ATOM      3  H   ASN A   2       5.547   4.709  47.744  0.00  0.00    +0.150 HD
ATOM      4  O   MET A   1       6.883   1.922  47.063  0.00  0.00    -0.274 OA
ENDROOT
BRANCH   1   5
ATOM      5  CA  MET A   1       5.696   3.314  45.536  0.00  0.00    +0.146 C 
BRANCH   5   6
ATOM      6  N   MET A   1       4.368   3.943  45.650  0.00  0.00    -0.238 NA
ATOM      7  H   MET A   1       4.263   4.973  45.557  0.00  0.00    +0.142 HD
ENDBRANCH   5   6
BRANCH   5   8
ATOM      8  CB  MET A   1       6.695   4.109  44.641  0.00  0.00    +0.038 C 
BRANCH   8   9
ATOM      9  CG  MET A   1       8.154   4.020  45.190  0.00  0.00    +0.060 C 
BRANCH   9  10
ATOM     10  SD  MET A   1       8.692   5.297  46.340  0.00  0.00    -0.139 S 
ATOM     11  CE  MET A   1       9.380   6.501  45.219  0.00  0.00    +0.069 C 
ENDBRANCH   9  10
ENDBRANCH   8   9
ENDBRANCH   5   8
ENDBRANCH   1   5
BRANCH   2  12
ATOM     12  CA  ASN A   2       6.470   3.466  49.280  0.00  0.00    +0.146 C 
BRANCH  12  13
ATOM     13  C   ASN A   2       5.804   2.185  49.770  0.00  0.00    +0.227 C 
ATOM     14  O   ASN A   2       6.466   1.287  50.285  0.00  0.00    -0.286 OA
ENDBRANCH  12  13
BRANCH  12  15
ATOM     15  CB  ASN A   2       6.177   4.601  50.261  0.00  0.00    +0.112 C 
BRANCH  15  16
ATOM     16  CG  ASN A   2       7.027   5.824  50.003  0.00  0.00    +0.222 C 
ATOM     17  ND2 ASN A   2       6.440   7.003  50.195  0.00  0.00    -0.329 N 
ATOM     18 HD21 ASN A   2       5.449   7.046  50.508  0.00  0.00    +0.145 HD
ATOM     19 HD22 ASN A   2       6.972   7.882  50.032  0.00  0.00    +0.145 HD
ATOM     20  OD1 ASN A   2       8.200   5.715  49.632  0.00  0.00    -0.275 OA
ENDBRANCH  15  16
ENDBRANCH  12  15
ENDBRANCH   2  12
TORSDOF 9
REMARK  Name = ../refined-set-2016/3cdb/3cdb_pocket.pdb
REMARK  230 active torsions:
REMARK  status: ('A' for Active; 'I' for Inactive)
REMARK    1  A    between atoms: _1  and  _3
REMARK    2  A    between atoms: _3  and  _4
REMARK    3  A    between atoms: _3  and  _6
REMARK    4  A    between atoms: _6  and  _7
REMARK    5  A    between atoms: _10  and  _12
REMARK    6  A    between atoms: _12  and  _13
REMARK    7  A    between atoms: _12  and  _15
REMARK    8  A    between atoms: _15  and  _16
REMARK    9  A    between atoms: _16  and  _17
REMARK   10  A    between atoms: _20  and  _22
REMARK   11  A    between atoms: _22  and  _23
REMARK   12  A    between atoms: _25  and  _27
REMARK   13  A    between atoms: _27  and  _28
REMARK   14  A    between atoms: _27  and  _30
REMARK   15  A    between atoms: _32  and  _34
REMARK   16  A    between atoms: _34  and  _35
REMARK   17  A    between atoms: _34  and  _37
REMARK   18  A    between atoms: _37  and  _38
REMARK   19  A    between atoms: _41  and  _43
REMARK   20  A    between atoms: _43  and  _44
REMARK   21  A    between atoms: _43  and  _46
REMARK   22  A    between atoms: _49  and  _51
REMARK   23  A    between atoms: _51  and  _52
REMARK   24  A    between atoms: _55  and  _57
REMARK   25  A    between atoms: _57  and  _58
REMARK   26  A    between atoms: _57  and  _60
REMARK   27  A    between atoms: _60  and  _61
REMARK   28  A    between atoms: _63  and  _65
REMARK   29  A    between atoms: _65  and  _66
REMARK   30  A    between atoms: _65  and  _68
REMARK   31  A    between atoms: _68  and  _69
REMARK   32  A    between atoms: _72  and  _74
REMARK   33  A    between atoms: _74  and  _75
REMARK   34  A    between atoms: _74  and  _77
REMARK   35  A    between atoms: _77  and  _78
REMARK   36  A    between atoms: _78  and  _79
REMARK   37  A    between atoms: _79  and  _80
REMARK   38  A    between atoms: _89  and  _91
REMARK   39  A    between atoms: _91  and  _92
REMARK   40  A    between atoms: _91  and  _94
REMARK   41  A    between atoms: _94  and  _95
REMARK   42  A    between atoms: _95  and  _96
REMARK   43  A    between atoms: _96  and  _97
REMARK   44  A    between atoms: _97  and  _98
REMARK   45  A    between atoms: _102  and  _104
REMARK   46  A    between atoms: _104  and  _105
REMARK   47  A    between atoms: _104  and  _107
REMARK   48  A    between atoms: _107  and  _108
REMARK   49  A    between atoms: _113  and  _115
REMARK   50  A    between atoms: _115  and  _116
REMARK   51  A    between atoms: _115  and  _118
REMARK   52  A    between atoms: _118  and  _119
REMARK   53  A    between atoms: _124  and  _126
REMARK   54  A    between atoms: _126  and  _127
REMARK   55  A    between atoms: _130  and  _132
REMARK   56  A    between atoms: _132  and  _133
REMARK   57  A    between atoms: _132  and  _135
REMARK   58  A    between atoms: _135  and  _136
REMARK   59  A    between atoms: _141  and  _143
REMARK   60  A    between atoms: _143  and  _144
REMARK   61  A    between atoms: _147  and  _149
REMARK   62  A    between atoms: _149  and  _150
REMARK   63  A    between atoms: _153  and  _155
REMARK   64  A    between atoms: _155  and  _156
REMARK   65  A    between atoms: _155  and  _158
REMARK   66  A    between atoms: _158  and  _159
REMARK   67  A    between atoms: _164  and  _166
REMARK   68  A    between atoms: _166  and  _167
REMARK   69  A    between atoms: _166  and  _169
REMARK   70  A    between atoms: _169  and  _170
REMARK   71  A    between atoms: _173  and  _175
REMARK   72  A    between atoms: _175  and  _176
REMARK   73  A    between atoms: _178  and  _180
REMARK   74  A    between atoms: _180  and  _181
REMARK   75  A    between atoms: _180  and  _183
REMARK   76  A    between atoms: _183  and  _184
REMARK   77  A    between atoms: _184  and  _185
REMARK   78  A    between atoms: _188  and  _190
REMARK   79  A    between atoms: _190  and  _191
REMARK   80  A    between atoms: _190  and  _193
REMARK   81  A    between atoms: _193  and  _194
REMARK   82  A    between atoms: _196  and  _198
REMARK   83  A    between atoms: _198  and  _199
REMARK   84  A    between atoms: _198  and  _201
REMARK   85  A    between atoms: _201  and  _202
REMARK   86  A    between atoms: _205  and  _207
REMARK   87  A    between atoms: _207  and  _208
REMARK   88  A    between atoms: _207  and  _210
REMARK   89  A    between atoms: _210  and  _211
REMARK   90  A    between atoms: _211  and  _212
REMARK   91  A    between atoms: _214  and  _216
REMARK   92  A    between atoms: _216  and  _217
REMARK   93  A    between atoms: _220  and  _222
REMARK   94  A    between atoms: _222  and  _223
REMARK   95  A    between atoms: _226  and  _228
REMARK   96  A    between atoms: _228  and  _229
REMARK   97  A    between atoms: _228  and  _231
REMARK   98  A    between atoms: _231  and  _232
REMARK   99  A    between atoms: _235  and  _237
REMARK  100  A    between atoms: _237  and  _238
REMARK  101  A    between atoms: _241  and  _243
REMARK  102  A    between atoms: _243  and  _244
REMARK  103  A    between atoms: _247  and  _249
REMARK  104  A    between atoms: _249  and  _250
REMARK  105  A    between atoms: _252  and  _254
REMARK  106  A    between atoms: _254  and  _255
REMARK  107  A    between atoms: _254  and  _257
REMARK  108  A    between atoms: _257  and  _258
REMARK  109  A    between atoms: _263  and  _265
REMARK  110  A    between atoms: _265  and  _266
REMARK  111  A    between atoms: _268  and  _270
REMARK  112  A    between atoms: _270  and  _271
REMARK  113  A    between atoms: _274  and  _276
REMARK  114  A    between atoms: _276  and  _277
REMARK  115  A    between atoms: _276  and  _279
REMARK  116  A    between atoms: _279  and  _280
REMARK  117  A    between atoms: _280  and  _281
REMARK  118  A    between atoms: _284  and  _286
REMARK  119  A    between atoms: _286  and  _287
REMARK  120  A    between atoms: _286  and  _289
REMARK  121  A    between atoms: _289  and  _290
REMARK  122  A    between atoms: _293  and  _295
REMARK  123  A    between atoms: _295  and  _296
REMARK  124  A    between atoms: _295  and  _298
REMARK  125  A    between atoms: _298  and  _299
REMARK  126  A    between atoms: _299  and  _300
REMARK  127  A    between atoms: _300  and  _301
REMARK  128  A    between atoms: _310  and  _312
REMARK  129  A    between atoms: _312  and  _313
REMARK  130  A    between atoms: _316  and  _317
REMARK  131  A    between atoms: _322  and  _324
REMARK  132  A    between atoms: _324  and  _325
REMARK  133  A    between atoms: _324  and  _327
REMARK  134  A    between atoms: _327  and  _328
REMARK  135  A    between atoms: _328  and  _329
REMARK  136  A    between atoms: _331  and  _333
REMARK  137  A    between atoms: _333  and  _334
REMARK  138  A    between atoms: _333  and  _336
REMARK  139  A    between atoms: _336  and  _337
REMARK  140  A    between atoms: _337  and  _338
REMARK  141  A    between atoms: _340  and  _342
REMARK  142  A    between atoms: _342  and  _343
REMARK  143  A    between atoms: _342  and  _345
REMARK  144  A    between atoms: _345  and  _346
REMARK  145  A    between atoms: _351  and  _353
REMARK  146  A    between atoms: _353  and  _354
REMARK  147  A    between atoms: _353  and  _356
REMARK  148  A    between atoms: _356  and  _357
REMARK  149  A    between atoms: _360  and  _362
REMARK  150  A    between atoms: _362  and  _363
REMARK  151  A    between atoms: _362  and  _365
REMARK  152  A    between atoms: _365  and  _366
REMARK  153  A    between atoms: _368  and  _370
REMARK  154  A    between atoms: _370  and  _371
REMARK  155  A    between atoms: _370  and  _373
REMARK  156  A    between atoms: _373  and  _374
REMARK  157  A    between atoms: _374  and  _375
REMARK  158  A    between atoms: _375  and  _376
REMARK  159  A    between atoms: _376  and  _377
REMARK  160  A    between atoms: _381  and  _383
REMARK  161  A    between atoms: _383  and  _384
REMARK  162  A    between atoms: _383  and  _386
REMARK  163  A    between atoms: _386  and  _387
REMARK  164  A    between atoms: _390  and  _392
REMARK  165  A    between atoms: _392  and  _393
REMARK  166  A    between atoms: _392  and  _395
REMARK  167  A    between atoms: _395  and  _396
REMARK  168  A    between atoms: _396  and  _397
REMARK  169  A    between atoms: _400  and  _402
REMARK  170  A    between atoms: _402  and  _403
REMARK  171  A    between atoms: _406  and  _408
REMARK  172  A    between atoms: _408  and  _409
REMARK  173  A    between atoms: _408  and  _411
REMARK  174  A    between atoms: _414  and  _416
REMARK  175  A    between atoms: _416  and  _417
REMARK  176  A    between atoms: _416  and  _419
REMARK  177  A    between atoms: _419  and  _420
REMARK  178  A    between atoms: _422  and  _424
REMARK  179  A    between atoms: _424  and  _425
REMARK  180  A    between atoms: _427  and  _429
REMARK  181  A    between atoms: _429  and  _430
REMARK  182  A    between atoms: _429  and  _432
REMARK  183  A    between atoms: _432  and  _433
REMARK  184  A    between atoms: _438  and  _440
REMARK  185  A    between atoms: _440  and  _441
REMARK  186  A    between atoms: _440  and  _443
REMARK  187  A    between atoms: _443  and  _444
REMARK  188  A    between atoms: _449  and  _450
REMARK  189  A    between atoms: _452  and  _454
REMARK  190  A    between atoms: _454  and  _455
REMARK  191  A    between atoms: _454  and  _457
REMARK  192  A    between atoms: _459  and  _461
REMARK  193  A    between atoms: _461  and  _462
REMARK  194  A    between atoms: _461  and  _464
REMARK  195  A    between atoms: _464  and  _465
REMARK  196  A    between atoms: _468  and  _470
REMARK  197  A    between atoms: _470  and  _471
REMARK  198  A    between atoms: _470  and  _473
REMARK  199  A    between atoms: _473  and  _474
REMARK  200  A    between atoms: _477  and  _479
REMARK  201  A    between atoms: _479  and  _480
REMARK  202  A    between atoms: _479  and  _482
REMARK  203  A    between atoms: _482  and  _483
REMARK  204  A    between atoms: _483  and  _484
REMARK  205  A    between atoms: _484  and  _485
REMARK  206  A    between atoms: _485  and  _486
REMARK  207  A    between atoms: _490  and  _492
REMARK  208  A    between atoms: _492  and  _493
REMARK  209  A    between atoms: _492  and  _495
REMARK  210  A    between atoms: _495  and  _496
REMARK  211  A    between atoms: _496  and  _497
REMARK  212  A    between atoms: _497  and  _498
REMARK  213  A    between atoms: _498  and  _499
REMARK  214  A    between atoms: _503  and  _505
REMARK  215  A    between atoms: _505  and  _506
REMARK  216  A    between atoms: _505  and  _508
REMARK  217  A    between atoms: _508  and  _509
REMARK  218  A    between atoms: _509  and  _510
REMARK  219  A    between atoms: _510  and  _511
REMARK  220  A    between atoms: _520  and  _522
REMARK  221  A    between atoms: _522  and  _523
REMARK  222  A    between atoms: _522  and  _525
REMARK  223  A    between atoms: _525  and  _526
REMARK  224  A    between atoms: _529  and  _531
REMARK  225  A    between atoms: _531  and  _532
REMARK  226  A    between atoms: _535  and  _537
REMARK  227  A    between atoms: _537  and  _538
REMARK  228  A    between atoms: _537  and  _540
REMARK  229  A    between atoms: _540  and  _541
REMARK  230  A    between atoms: _541  and  _542
REMARK                            x       y       z     vdW  Elec       q    Type
REMARK                         _______ _______ _______ _____ _____    ______ ____
ROOT
ATOM      1  CA  SER A   2       8.215  -1.435  47.871  0.00  0.00    +0.178 C 
ENDROOT
BRANCH   1   3
ATOM      2  C   ILE A   1       5.890  -1.934  47.376  0.00  0.00    +0.238 C 
ATOM      3  N   SER A   2       6.841  -1.033  47.601  0.00  0.00    -0.295 N 
ATOM      4  H   SER A   2       6.600  -0.022  47.584  0.00  0.00    +0.150 HD
ATOM      5  O   ILE A   1       6.119  -3.136  47.330  0.00  0.00    -0.274 OA
BRANCH   2   6
ATOM      6  CA  ILE A   1       4.466  -1.412  47.169  0.00  0.00    +0.145 C 
BRANCH   6   7
ATOM      7  N   ILE A   1       4.203  -0.233  47.996  0.00  0.00    -0.238 NA
ATOM      8  H   ILE A   1       4.121   0.696  47.536  0.00  0.00    +0.142 HD
ENDBRANCH   6   7
BRANCH   6   9
ATOM      9  CB  ILE A   1       4.205  -1.109  45.666  0.00  0.00    +0.025 C 
ATOM     10  CG2 ILE A   1       4.605  -2.297  44.793  0.00  0.00    +0.002 C 
BRANCH   9  11
ATOM     11  CG1 ILE A   1       2.729  -0.755  45.425  0.00  0.00    +0.002 C 
ATOM     12  CD1 ILE A   1       1.771  -1.913  45.503  0.00  0.00    +0.000 C 
ENDBRANCH   9  11
ENDBRANCH   6   9
ENDBRANCH   2   6
ENDBRANCH   1   3
BRANCH   1  13
ATOM     13  C   SER A   2       8.358  -2.049  49.264  0.00  0.00    +0.243 C 
ATOM     14  N   LYS A   3       7.529  -1.603  50.208  0.00  0.00    -0.298 N 
ATOM     15  H   LYS A   3       6.859  -0.844  49.971  0.00  0.00    +0.150 HD
ATOM     16  O   SER A   2       9.206  -2.911  49.471  0.00  0.00    -0.273 OA
BRANCH  14  17
ATOM     17  CA  LYS A   3       7.531  -2.145  51.566  0.00  0.00    +0.137 C 
BRANCH  17  18
ATOM     18  C   LYS A   3       6.952  -3.562  51.562  0.00  0.00    +0.227 C 
ATOM     19  O   LYS A   3       7.487  -4.461  52.206  0.00  0.00    -0.286 OA
ENDBRANCH  17  18
BRANCH  17  20
ATOM     20  CB  LYS A   3       6.730  -1.237  52.507  0.00  0.00    +0.028 C 
BRANCH  20  21
ATOM     21  CG  LYS A   3       6.757  -1.653  53.982  0.00  0.00    -0.000 C 
BRANCH  21  22
ATOM     22  CD  LYS A   3       5.847  -0.756  54.840  0.00  0.00    -0.024 C 
BRANCH  22  23
ATOM     23  CE  LYS A   3       6.114  -0.924  56.338  0.00  0.00    -0.086 C 
BRANCH  23  24
ATOM     24  NZ  LYS A   3       5.025  -1.693  57.024  0.00  0.00    +0.380 N 
ATOM     25  HZ1 LYS A   3       5.249  -1.781  58.036  0.00  0.00    -0.089 HD
ATOM     26  HZ2 LYS A   3       4.122  -1.189  56.910  0.00  0.00    -0.089 HD
ATOM     27  HZ3 LYS A   3       4.951  -2.640  56.600  0.00  0.00    -0.089 HD
ENDBRANCH  23  24
ENDBRANCH  22  23
ENDBRANCH  21  22
ENDBRANCH  20  21
ENDBRANCH  17  20
ENDBRANCH  14  17
ENDBRANCH   1  13
BRANCH   1  28
ATOM     28  CB  SER A   2       9.174  -0.256  47.722  0.00  0.00    +0.166 C 
BRANCH  28  29
ATOM     29  OG  SER A   2       9.114   0.578  48.857  0.00  0.00    -0.380 OA
ATOM     30  H   SER A   2       8.193   0.924  48.962  0.00  0.00    +0.211 HD
ENDBRANCH  28  29
ENDBRANCH   1  28
TORSDOF 15
REMARK  Name = ../refined-set-2016/3cdb/3cdb_pocket.pdb
REMARK  230 active torsions:
REMARK  status: ('A' for Active; 'I' for Inactive)
REMARK    1  A    between atoms: _1  and  _3
REMARK    2  A    between atoms: _3  and  _4
REMARK    3  A    between atoms: _3  and  _6
REMARK    4  A    between atoms: _6  and  _7
REMARK    5  A    between atoms: _10  and  _12
REMARK    6  A    between atoms: _12  and  _13
REMARK    7  A    between atoms: _12  and  _15
REMARK    8  A    between atoms: _15  and  _16
REMARK    9  A    between atoms: _16  and  _17
REMARK   10  A    between atoms: _20  and  _22
REMARK   11  A    between atoms: _22  and  _23
REMARK   12  A    between atoms: _25  and  _27
REMARK   13  A    between atoms: _27  and  _28
REMARK   14  A    between atoms: _27  and  _30
REMARK   15  A    between atoms: _32  and  _34
REMARK   16  A    between atoms: _34  and  _35
REMARK   17  A    between atoms: _34  and  _37
REMARK   18  A    between atoms: _37  and  _38
REMARK   19  A    between atoms: _41  and  _43
REMARK   20  A    between atoms: _43  and  _44
REMARK   21  A    between atoms: _43  and  _46
REMARK   22  A    between atoms: _49  and  _51
REMARK   23  A    between atoms: _51  and  _52
REMARK   24  A    between atoms: _55  and  _57
REMARK   25  A    between atoms: _57  and  _58
REMARK   26  A    between atoms: _57  and  _60
REMARK   27  A    between atoms: _60  and  _61
REMARK   28  A    between atoms: _63  and  _65
REMARK   29  A    between atoms: _65  and  _66
REMARK   30  A    between atoms: _65  and  _68
REMARK   31  A    between atoms: _68  and  _69
REMARK   32  A    between atoms: _72  and  _74
REMARK   33  A    between atoms: _74  and  _75
REMARK   34  A    between atoms: _74  and  _77
REMARK   35  A    between atoms: _77  and  _78
REMARK   36  A    between atoms: _78  and  _79
REMARK   37  A    between atoms: _79  and  _80
REMARK   38  A    between atoms: _89  and  _91
REMARK   39  A    between atoms: _91  and  _92
REMARK   40  A    between atoms: _91  and  _94
REMARK   41  A    between atoms: _94  and  _95
REMARK   42  A    between atoms: _95  and  _96
REMARK   43  A    between atoms: _96  and  _97
REMARK   44  A    between atoms: _97  and  _98
REMARK   45  A    between atoms: _102  and  _104
REMARK   46  A    between atoms: _104  and  _105
REMARK   47  A    between atoms: _104  and  _107
REMARK   48  A    between atoms: _107  and  _108
REMARK   49  A    between atoms: _113  and  _115
REMARK   50  A    between atoms: _115  and  _116
REMARK   51  A    between atoms: _115  and  _118
REMARK   52  A    between atoms: _118  and  _119
REMARK   53  A    between atoms: _124  and  _126
REMARK   54  A    between atoms: _126  and  _127
REMARK   55  A    between atoms: _130  and  _132
REMARK   56  A    between atoms: _132  and  _133
REMARK   57  A    between atoms: _132  and  _135
REMARK   58  A    between atoms: _135  and  _136
REMARK   59  A    between atoms: _141  and  _143
REMARK   60  A    between atoms: _143  and  _144
REMARK   61  A    between atoms: _147  and  _149
REMARK   62  A    between atoms: _149  and  _150
REMARK   63  A    between atoms: _153  and  _155
REMARK   64  A    between atoms: _155  and  _156
REMARK   65  A    between atoms: _155  and  _158
REMARK   66  A    between atoms: _158  and  _159
REMARK   67  A    between atoms: _164  and  _166
REMARK   68  A    between atoms: _166  and  _167
REMARK   69  A    between atoms: _166  and  _169
REMARK   70  A    between atoms: _169  and  _170
REMARK   71  A    between atoms: _173  and  _175
REMARK   72  A    between atoms: _175  and  _176
REMARK   73  A    between atoms: _178  and  _180
REMARK   74  A    between atoms: _180  and  _181
REMARK   75  A    between atoms: _180  and  _183
REMARK   76  A    between atoms: _183  and  _184
REMARK   77  A    between atoms: _184  and  _185
REMARK   78  A    between atoms: _188  and  _190
REMARK   79  A    between atoms: _190  and  _191
REMARK   80  A    between atoms: _190  and  _193
REMARK   81  A    between atoms: _193  and  _194
REMARK   82  A    between atoms: _196  and  _198
REMARK   83  A    between atoms: _198  and  _199
REMARK   84  A    between atoms: _198  and  _201
REMARK   85  A    between atoms: _201  and  _202
REMARK   86  A    between atoms: _205  and  _207
REMARK   87  A    between atoms: _207  and  _208
REMARK   88  A    between atoms: _207  and  _210
REMARK   89  A    between atoms: _210  and  _211
REMARK   90  A    between atoms: _211  and  _212
REMARK   91  A    between atoms: _214  and  _216
REMARK   92  A    between atoms: _216  and  _217
REMARK   93  A    between atoms: _220  and  _222
REMARK   94  A    between atoms: _222  and  _223
REMARK   95  A    between atoms: _226  and  _228
REMARK   96  A    between atoms: _228  and  _229
REMARK   97  A    between atoms: _228  and  _231
REMARK   98  A    between atoms: _231  and  _232
REMARK   99  A    between atoms: _235  and  _237
REMARK  100  A    between atoms: _237  and  _238
REMARK  101  A    between atoms: _241  and  _243
REMARK  102  A    between atoms: _243  and  _244
REMARK  103  A    between atoms: _247  and  _249
REMARK  104  A    between atoms: _249  and  _250
REMARK  105  A    between atoms: _252  and  _254
REMARK  106  A    between atoms: _254  and  _255
REMARK  107  A    between atoms: _254  and  _257
REMARK  108  A    between atoms: _257  and  _258
REMARK  109  A    between atoms: _263  and  _265
REMARK  110  A    between atoms: _265  and  _266
REMARK  111  A    between atoms: _268  and  _270
REMARK  112  A    between atoms: _270  and  _271
REMARK  113  A    between atoms: _274  and  _276
REMARK  114  A    between atoms: _276  and  _277
REMARK  115  A    between atoms: _276  and  _279
REMARK  116  A    between atoms: _279  and  _280
REMARK  117  A    between atoms: _280  and  _281
REMARK  118  A    between atoms: _284  and  _286
REMARK  119  A    between atoms: _286  and  _287
REMARK  120  A    between atoms: _286  and  _289
REMARK  121  A    between atoms: _289  and  _290
REMARK  122  A    between atoms: _293  and  _295
REMARK  123  A    between atoms: _295  and  _296
REMARK  124  A    between atoms: _295  and  _298
REMARK  125  A    between atoms: _298  and  _299
REMARK  126  A    between atoms: _299  and  _300
REMARK  127  A    between atoms: _300  and  _301
REMARK  128  A    between atoms: _310  and  _312
REMARK  129  A    between atoms: _312  and  _313
REMARK  130  A    between atoms: _316  and  _317
REMARK  131  A    between atoms: _322  and  _324
REMARK  132  A    between atoms: _324  and  _325
REMARK  133  A    between atoms: _324  and  _327
REMARK  134  A    between atoms: _327  and  _328
REMARK  135  A    between atoms: _328  and  _329
REMARK  136  A    between atoms: _331  and  _333
REMARK  137  A    between atoms: _333  and  _334
REMARK  138  A    between atoms: _333  and  _336
REMARK  139  A    between atoms: _336  and  _337
REMARK  140  A    between atoms: _337  and  _338
REMARK  141  A    between atoms: _340  and  _342
REMARK  142  A    between atoms: _342  and  _343
REMARK  143  A    between atoms: _342  and  _345
REMARK  144  A    between atoms: _345  and  _346
REMARK  145  A    between atoms: _351  and  _353
REMARK  146  A    between atoms: _353  and  _354
REMARK  147  A    between atoms: _353  and  _356
REMARK  148  A    between atoms: _356  and  _357
REMARK  149  A    between atoms: _360  and  _362
REMARK  150  A    between atoms: _362  and  _363
REMARK  151  A    between atoms: _362  and  _365
REMARK  152  A    between atoms: _365  and  _366
REMARK  153  A    between atoms: _368  and  _370
REMARK  154  A    between atoms: _370  and  _371
REMARK  155  A    between atoms: _370  and  _373
REMARK  156  A    between atoms: _373  and  _374
REMARK  157  A    between atoms: _374  and  _375
REMARK  158  A    between atoms: _375  and  _376
REMARK  159  A    between atoms: _376  and  _377
REMARK  160  A    between atoms: _381  and  _383
REMARK  161  A    between atoms: _383  and  _384
REMARK  162  A    between atoms: _383  and  _386
REMARK  163  A    between atoms: _386  and  _387
REMARK  164  A    between atoms: _390  and  _392
REMARK  165  A    between atoms: _392  and  _393
REMARK  166  A    between atoms: _392  and  _395
REMARK  167  A    between atoms: _395  and  _396
REMARK  168  A    between atoms: _396  and  _397
REMARK  169  A    between atoms: _400  and  _402
REMARK  170  A    between atoms: _402  and  _403
REMARK  171  A    between atoms: _406  and  _408
REMARK  172  A    between atoms: _408  and  _409
REMARK  173  A    between atoms: _408  and  _411
REMARK  174  A    between atoms: _414  and  _416
REMARK  175  A    between atoms: _416  and  _417
REMARK  176  A    between atoms: _416  and  _419
REMARK  177  A    between atoms: _419  and  _420
REMARK  178  A    between atoms: _422  and  _424
REMARK  179  A    between atoms: _424  and  _425
REMARK  180  A    between atoms: _427  and  _429
REMARK  181  A    between atoms: _429  and  _430
REMARK  182  A    between atoms: _429  and  _432
REMARK  183  A    between atoms: _432  and  _433
REMARK  184  A    between atoms: _438  and  _440
REMARK  185  A    between atoms: _440  and  _441
REMARK  186  A    between atoms: _440  and  _443
REMARK  187  A    between atoms: _443  and  _444
REMARK  188  A    between atoms: _449  and  _450
REMARK  189  A    between atoms: _452  and  _454
REMARK  190  A    between atoms: _454  and  _455
REMARK  191  A    between atoms: _454  and  _457
REMARK  192  A    between atoms: _459  and  _461
REMARK  193  A    between atoms: _461  and  _462
REMARK  194  A    between atoms: _461  and  _464
REMARK  195  A    between atoms: _464  and  _465
REMARK  196  A    between atoms: _468  and  _470
REMARK  197  A    between atoms: _470  and  _471
REMARK  198  A    between atoms: _470  and  _473
REMARK  199  A    between atoms: _473  and  _474
REMARK  200  A    between atoms: _477  and  _479
REMARK  201  A    between atoms: _479  and  _480
REMARK  202  A    between atoms: _479  and  _482
REMARK  203  A    between atoms: _482  and  _483
REMARK  204  A    between atoms: _483  and  _484
REMARK  205  A    between atoms: _484  and  _485
REMARK  206  A    between atoms: _485  and  _486
REMARK  207  A    between atoms: _490  and  _492
REMARK  208  A    between atoms: _492  and  _493
REMARK  209  A    between atoms: _492  and  _495
REMARK  210  A    between atoms: _495  and  _496
REMARK  211  A    between atoms: _496  and  _497
REMARK  212  A    between atoms: _497  and  _498
REMARK  213  A    between atoms: _498  and  _499
REMARK  214  A    between atoms: _503  and  _505
REMARK  215  A    between atoms: _505  and  _506
REMARK  216  A    between atoms: _505  and  _508
REMARK  217  A    between atoms: _508  and  _509
REMARK  218  A    between atoms: _509  and  _510
REMARK  219  A    between atoms: _510  and  _511
REMARK  220  A    between atoms: _520  and  _522
REMARK  221  A    between atoms: _522  and  _523
REMARK  222  A    between atoms: _522  and  _525
REMARK  223  A    between atoms: _525  and  _526
REMARK  224  A    between atoms: _529  and  _531
REMARK  225  A    between atoms: _531  and  _532
REMARK  226  A    between atoms: _535  and  _537
REMARK  227  A    between atoms: _537  and  _538
REMARK  228  A    between atoms: _537  and  _540
REMARK  229  A    between atoms: _540  and  _541
REMARK  230  A    between atoms: _541  and  _542
REMARK                            x       y       z     vdW  Elec       q    Type
REMARK                         _______ _______ _______ _____ _____    ______ ____
ROOT
ATOM      1  C   THR A   1       8.997  -6.754  48.858  0.00  0.00    +0.241 C 
ATOM      2  N   GLU A   2       9.508  -5.960  49.795  0.00  0.00    -0.298 N 
ATOM      3  H   GLU A   2       9.075  -5.029  49.961  0.00  0.00    +0.150 HD
ATOM      4  O   THR A   1       9.434  -7.872  48.620  0.00  0.00    -0.274 OA
ENDROOT
BRANCH   1   5
ATOM      5  CA  THR A   1       7.812  -6.218  48.075  0.00  0.00    +0.172 C 
BRANCH   5   6
ATOM      6  N   THR A   1       6.939  -5.444  48.949  0.00  0.00    -0.236 NA
ATOM      7  H   THR A   1       6.928  -4.409  48.852  0.00  0.00    +0.142 HD
ENDBRANCH   5   6
BRANCH   5   8
ATOM      8  CB  THR A   1       8.295  -5.352  46.871  0.00  0.00    +0.135 C 
ATOM      9  CG2 THR A   1       9.359  -6.070  46.047  0.00  0.00    +0.034 C 
BRANCH   8  10
ATOM     10  OG1 THR A   1       7.221  -5.159  45.940  0.00  0.00    -0.383 OA
ATOM     11  HG1 THR A   1       6.472  -4.697  46.393  0.00  0.00    +0.210 HD
ENDBRANCH   8  10
ENDBRANCH   5   8
ENDBRANCH   1   5
BRANCH   2  12
ATOM     12  CA  GLU A   2      10.663  -6.362  50.599  0.00  0.00    +0.137 C 
BRANCH  12  13
ATOM     13  C   GLU A   2      10.322  -7.502  51.549  0.00  0.00    +0.227 C 
ATOM     14  O   GLU A   2      11.126  -8.410  51.726  0.00  0.00    -0.286 OA
ENDBRANCH  12  13
BRANCH  12  15
ATOM     15  CB  GLU A   2      11.239  -5.177  51.380  0.00  0.00    +0.039 C 
BRANCH  15  16
ATOM     16  CG  GLU A   2      12.208  -4.342  50.554  0.00  0.00    +0.116 C 
BRANCH  16  17
ATOM     17  CD  GLU A   2      13.159  -3.498  51.383  0.00  0.00    +0.365 C 
ATOM     18  OE2 GLU A   2      13.184  -3.631  52.636  0.00  0.00    -0.246 OA
ATOM     19  OE1 GLU A   2      13.893  -2.694  50.763  0.00  0.00    -0.246 OA
ENDBRANCH  16  17
ENDBRANCH  15  16
ENDBRANCH  12  15
ENDBRANCH   2  12
TORSDOF 9
REMARK  Name = ../refined-set-2016/3cdb/3cdb_pocket.pdb
REMARK  230 active torsions:
REMARK  status: ('A' for Active; 'I' for Inactive)
REMARK    1  A    between atoms: _1  and  _3
REMARK    2  A    between atoms: _3  and  _4
REMARK    3  A    between atoms: _3  and  _6
REMARK    4  A    between atoms: _6  and  _7
REMARK    5  A    between atoms: _10  and  _12
REMARK    6  A    between atoms: _12  and  _13
REMARK    7  A    between atoms: _12  and  _15
REMARK    8  A    between atoms: _15  and  _16
REMARK    9  A    between atoms: _16  and  _17
REMARK   10  A    between atoms: _20  and  _22
REMARK   11  A    between atoms: _22  and  _23
REMARK   12  A    between atoms: _25  and  _27
REMARK   13  A    between atoms: _27  and  _28
REMARK   14  A    between atoms: _27  and  _30
REMARK   15  A    between atoms: _32  and  _34
REMARK   16  A    between atoms: _34  and  _35
REMARK   17  A    between atoms: _34  and  _37
REMARK   18  A    between atoms: _37  and  _38
REMARK   19  A    between atoms: _41  and  _43
REMARK   20  A    between atoms: _43  and  _44
REMARK   21  A    between atoms: _43  and  _46
REMARK   22  A    between atoms: _49  and  _51
REMARK   23  A    between atoms: _51  and  _52
REMARK   24  A    between atoms: _55  and  _57
REMARK   25  A    between atoms: _57  and  _58
REMARK   26  A    between atoms: _57  and  _60
REMARK   27  A    between atoms: _60  and  _61
REMARK   28  A    between atoms: _63  and  _65
REMARK   29  A    between atoms: _65  and  _66
REMARK   30  A    between atoms: _65  and  _68
REMARK   31  A    between atoms: _68  and  _69
REMARK   32  A    between atoms: _72  and  _74
REMARK   33  A    between atoms: _74  and  _75
REMARK   34  A    between atoms: _74  and  _77
REMARK   35  A    between atoms: _77  and  _78
REMARK   36  A    between atoms: _78  and  _79
REMARK   37  A    between atoms: _79  and  _80
REMARK   38  A    between atoms: _89  and  _91
REMARK   39  A    between atoms: _91  and  _92
REMARK   40  A    between atoms: _91  and  _94
REMARK   41  A    between atoms: _94  and  _95
REMARK   42  A    between atoms: _95  and  _96
REMARK   43  A    between atoms: _96  and  _97
REMARK   44  A    between atoms: _97  and  _98
REMARK   45  A    between atoms: _102  and  _104
REMARK   46  A    between atoms: _104  and  _105
REMARK   47  A    between atoms: _104  and  _107
REMARK   48  A    between atoms: _107  and  _108
REMARK   49  A    between atoms: _113  and  _115
REMARK   50  A    between atoms: _115  and  _116
REMARK   51  A    between atoms: _115  and  _118
REMARK   52  A    between atoms: _118  and  _119
REMARK   53  A    between atoms: _124  and  _126
REMARK   54  A    between atoms: _126  and  _127
REMARK   55  A    between atoms: _130  and  _132
REMARK   56  A    between atoms: _132  and  _133
REMARK   57  A    between atoms: _132  and  _135
REMARK   58  A    between atoms: _135  and  _136
REMARK   59  A    between atoms: _141  and  _143
REMARK   60  A    between atoms: _143  and  _144
REMARK   61  A    between atoms: _147  and  _149
REMARK   62  A    between atoms: _149  and  _150
REMARK   63  A    between atoms: _153  and  _155
REMARK   64  A    between atoms: _155  and  _156
REMARK   65  A    between atoms: _155  and  _158
REMARK   66  A    between atoms: _158  and  _159
REMARK   67  A    between atoms: _164  and  _166
REMARK   68  A    between atoms: _166  and  _167
REMARK   69  A    between atoms: _166  and  _169
REMARK   70  A    between atoms: _169  and  _170
REMARK   71  A    between atoms: _173  and  _175
REMARK   72  A    between atoms: _175  and  _176
REMARK   73  A    between atoms: _178  and  _180
REMARK   74  A    between atoms: _180  and  _181
REMARK   75  A    between atoms: _180  and  _183
REMARK   76  A    between atoms: _183  and  _184
REMARK   77  A    between atoms: _184  and  _185
REMARK   78  A    between atoms: _188  and  _190
REMARK   79  A    between atoms: _190  and  _191
REMARK   80  A    between atoms: _190  and  _193
REMARK   81  A    between atoms: _193  and  _194
REMARK   82  A    between atoms: _196  and  _198
REMARK   83  A    between atoms: _198  and  _199
REMARK   84  A    between atoms: _198  and  _201
REMARK   85  A    between atoms: _201  and  _202
REMARK   86  A    between atoms: _205  and  _207
REMARK   87  A    between atoms: _207  and  _208
REMARK   88  A    between atoms: _207  and  _210
REMARK   89  A    between atoms: _210  and  _211
REMARK   90  A    between atoms: _211  and  _212
REMARK   91  A    between atoms: _214  and  _216
REMARK   92  A    between atoms: _216  and  _217
REMARK   93  A    between atoms: _220  and  _222
REMARK   94  A    between atoms: _222  and  _223
REMARK   95  A    between atoms: _226  and  _228
REMARK   96  A    between atoms: _228  and  _229
REMARK   97  A    between atoms: _228  and  _231
REMARK   98  A    between atoms: _231  and  _232
REMARK   99  A    between atoms: _235  and  _237
REMARK  100  A    between atoms: _237  and  _238
REMARK  101  A    between atoms: _241  and  _243
REMARK  102  A    between atoms: _243  and  _244
REMARK  103  A    between atoms: _247  and  _249
REMARK  104  A    between atoms: _249  and  _250
REMARK  105  A    between atoms: _252  and  _254
REMARK  106  A    between atoms: _254  and  _255
REMARK  107  A    between atoms: _254  and  _257
REMARK  108  A    between atoms: _257  and  _258
REMARK  109  A    between atoms: _263  and  _265
REMARK  110  A    between atoms: _265  and  _266
REMARK  111  A    between atoms: _268  and  _270
REMARK  112  A    between atoms: _270  and  _271
REMARK  113  A    between atoms: _274  and  _276
REMARK  114  A    between atoms: _276  and  _277
REMARK  115  A    between atoms: _276  and  _279
REMARK  116  A    between atoms: _279  and  _280
REMARK  117  A    between atoms: _280  and  _281
REMARK  118  A    between atoms: _284  and  _286
REMARK  119  A    between atoms: _286  and  _287
REMARK  120  A    between atoms: _286  and  _289
REMARK  121  A    between atoms: _289  and  _290
REMARK  122  A    between atoms: _293  and  _295
REMARK  123  A    between atoms: _295  and  _296
REMARK  124  A    between atoms: _295  and  _298
REMARK  125  A    between atoms: _298  and  _299
REMARK  126  A    between atoms: _299  and  _300
REMARK  127  A    between atoms: _300  and  _301
REMARK  128  A    between atoms: _310  and  _312
REMARK  129  A    between atoms: _312  and  _313
REMARK  130  A    between atoms: _316  and  _317
REMARK  131  A    between atoms: _322  and  _324
REMARK  132  A    between atoms: _324  and  _325
REMARK  133  A    between atoms: _324  and  _327
REMARK  134  A    between atoms: _327  and  _328
REMARK  135  A    between atoms: _328  and  _329
REMARK  136  A    between atoms: _331  and  _333
REMARK  137  A    between atoms: _333  and  _334
REMARK  138  A    between atoms: _333  and  _336
REMARK  139  A    between atoms: _336  and  _337
REMARK  140  A    between atoms: _337  and  _338
REMARK  141  A    between atoms: _340  and  _342
REMARK  142  A    between atoms: _342  and  _343
REMARK  143  A    between atoms: _342  and  _345
REMARK  144  A    between atoms: _345  and  _346
REMARK  145  A    between atoms: _351  and  _353
REMARK  146  A    between atoms: _353  and  _354
REMARK  147  A    between atoms: _353  and  _356
REMARK  148  A    between atoms: _356  and  _357
REMARK  149  A    between atoms: _360  and  _362
REMARK  150  A    between atoms: _362  and  _363
REMARK  151  A    between atoms: _362  and  _365
REMARK  152  A    between atoms: _365  and  _366
REMARK  153  A    between atoms: _368  and  _370
REMARK  154  A    between atoms: _370  and  _371
REMARK  155  A    between atoms: _370  and  _373
REMARK  156  A    between atoms: _373  and  _374
REMARK  157  A    between atoms: _374  and  _375
REMARK  158  A    between atoms: _375  and  _376
REMARK  159  A    between atoms: _376  and  _377
REMARK  160  A    between atoms: _381  and  _383
REMARK  161  A    between atoms: _383  and  _384
REMARK  162  A    between atoms: _383  and  _386
REMARK  163  A    between atoms: _386  and  _387
REMARK  164  A    between atoms: _390  and  _392
REMARK  165  A    between atoms: _392  and  _393
REMARK  166  A    between atoms: _392  and  _395
REMARK  167  A    between atoms: _395  and  _396
REMARK  168  A    between atoms: _396  and  _397
REMARK  169  A    between atoms: _400  and  _402
REMARK  170  A    between atoms: _402  and  _403
REMARK  171  A    between atoms: _406  and  _408
REMARK  172  A    between atoms: _408  and  _409
REMARK  173  A    between atoms: _408  and  _411
REMARK  174  A    between atoms: _414  and  _416
REMARK  175  A    between atoms: _416  and  _417
REMARK  176  A    between atoms: _416  and  _419
REMARK  177  A    between atoms: _419  and  _420
REMARK  178  A    between atoms: _422  and  _424
REMARK  179  A    between atoms: _424  and  _425
REMARK  180  A    between atoms: _427  and  _429
REMARK  181  A    between atoms: _429  and  _430
REMARK  182  A    between atoms: _429  and  _432
REMARK  183  A    between atoms: _432  and  _433
REMARK  184  A    between atoms: _438  and  _440
REMARK  185  A    between atoms: _440  and  _441
REMARK  186  A    between atoms: _440  and  _443
REMARK  187  A    between atoms: _443  and  _444
REMARK  188  A    between atoms: _449  and  _450
REMARK  189  A    between atoms: _452  and  _454
REMARK  190  A    between atoms: _454  and  _455
REMARK  191  A    between atoms: _454  and  _457
REMARK  192  A    between atoms: _459  and  _461
REMARK  193  A    between atoms: _461  and  _462
REMARK  194  A    between atoms: _461  and  _464
REMARK  195  A    between atoms: _464  and  _465
REMARK  196  A    between atoms: _468  and  _470
REMARK  197  A    between atoms: _470  and  _471
REMARK  198  A    between atoms: _470  and  _473
REMARK  199  A    between atoms: _473  and  _474
REMARK  200  A    between atoms: _477  and  _479
REMARK  201  A    between atoms: _479  and  _480
REMARK  202  A    between atoms: _479  and  _482
REMARK  203  A    between atoms: _482  and  _483
REMARK  204  A    between atoms: _483  and  _484
REMARK  205  A    between atoms: _484  and  _485
REMARK  206  A    between atoms: _485  and  _486
REMARK  207  A    between atoms: _490  and  _492
REMARK  208  A    between atoms: _492  and  _493
REMARK  209  A    between atoms: _492  and  _495
REMARK  210  A    between atoms: _495  and  _496
REMARK  211  A    between atoms: _496  and  _497
REMARK  212  A    between atoms: _497  and  _498
REMARK  213  A    between atoms: _498  and  _499
REMARK  214  A    between atoms: _503  and  _505
REMARK  215  A    between atoms: _505  and  _506
REMARK  216  A    between atoms: _505  and  _508
REMARK  217  A    between atoms: _508  and  _509
REMARK  218  A    between atoms: _509  and  _510
REMARK  219  A    between atoms: _510  and  _511
REMARK  220  A    between atoms: _520  and  _522
REMARK  221  A    between atoms: _522  and  _523
REMARK  222  A    between atoms: _522  and  _525
REMARK  223  A    between atoms: _525  and  _526
REMARK  224  A    between atoms: _529  and  _531
REMARK  225  A    between atoms: _531  and  _532
REMARK  226  A    between atoms: _535  and  _537
REMARK  227  A    between atoms: _537  and  _538
REMARK  228  A    between atoms: _537  and  _540
REMARK  229  A    between atoms: _540  and  _541
REMARK  230  A    between atoms: _541  and  _542
REMARK                            x       y       z     vdW  Elec       q    Type
REMARK                         _______ _______ _______ _____ _____    ______ ____
ROOT
ATOM      1  C   TYR A   6       9.474  -3.855  35.807  0.00  0.00    +0.241 C 
ATOM      2  N   CYS A   7       9.477  -2.699  36.462  0.00  0.00    -0.296 N 
ATOM      3  H   CYS A   7      10.370  -2.173  36.553  0.00  0.00    +0.150 HD
ATOM      4  O   TYR A   6       8.441  -4.478  35.562  0.00  0.00    -0.273 OA
ENDROOT
BRANCH   1   5
ATOM      5  CA  TYR A   6      10.829  -4.369  35.308  0.00  0.00    +0.153 C 
BRANCH   5   7
ATOM      6  C   ASN A   5      12.522  -2.635  35.167  0.00  0.00    +0.241 C 
ATOM      7  N   TYR A   6      11.911  -3.573  35.877  0.00  0.00    -0.297 N 
ATOM      8  H   TYR A   6      12.209  -3.745  36.859  0.00  0.00    +0.150 HD
ATOM      9  O   ASN A   5      12.213  -2.389  34.001  0.00  0.00    -0.273 OA
BRANCH   6  10
ATOM     10  CA  ASN A   5      13.629  -1.838  35.866  0.00  0.00    +0.158 C 
BRANCH  10  12
ATOM     11  C   GLY A   4      14.888  -3.640  37.006  0.00  0.00    +0.243 C 
ATOM     12  N   ASN A   5      14.228  -2.480  37.048  0.00  0.00    -0.297 N 
ATOM     13  H   ASN A   5      14.132  -2.003  37.967  0.00  0.00    +0.150 HD
ATOM     14  O   GLY A   4      15.070  -4.275  35.966  0.00  0.00    -0.273 OA
BRANCH  11  15
ATOM     15  CA  GLY A   4      15.421  -4.177  38.327  0.00  0.00    +0.176 C 
BRANCH  15  18
ATOM     16  C   SER A   3      15.070  -2.756  40.287  0.00  0.00    +0.243 C 
ATOM     17  O   SER A   3      16.193  -2.263  40.218  0.00  0.00    -0.273 OA
ATOM     18  N   GLY A   4      14.650  -3.721  39.470  0.00  0.00    -0.295 N 
ATOM     19  H   GLY A   4      13.730  -4.167  39.659  0.00  0.00    +0.150 HD
BRANCH  16  20
ATOM     20  CA  SER A   3      14.059  -2.262  41.331  0.00  0.00    +0.178 C 
BRANCH  20  23
ATOM     21  C   VAL A   2      13.803  -3.300  43.549  0.00  0.00    +0.241 C 
ATOM     22  O   VAL A   2      12.634  -3.616  43.356  0.00  0.00    -0.273 OA
ATOM     23  N   SER A   3      14.504  -2.534  42.705  0.00  0.00    -0.295 N 
ATOM     24  H   SER A   3      15.397  -2.115  43.034  0.00  0.00    +0.150 HD
BRANCH  21  25
ATOM     25  CA  VAL A   2      14.544  -3.807  44.791  0.00  0.00    +0.148 C 
BRANCH  25  27
ATOM     26  C   ALA A   1      16.514  -4.667  43.650  0.00  0.00    +0.238 C 
ATOM     27  N   VAL A   2      15.980  -3.828  44.532  0.00  0.00    -0.297 N 
ATOM     28  H   VAL A   2      16.599  -3.172  45.049  0.00  0.00    +0.150 HD
ATOM     29  O   ALA A   1      15.843  -5.464  42.991  0.00  0.00    -0.274 OA
BRANCH  26  30
ATOM     30  CA  ALA A   1      18.024  -4.594  43.478  0.00  0.00    +0.145 C 
ATOM     31  CB  ALA A   1      18.374  -3.747  42.272  0.00  0.00    +0.028 C 
BRANCH  30  32
ATOM     32  N   ALA A   1      18.575  -5.937  43.341  0.00  0.00    -0.238 NA
ATOM     33  H   ALA A   1      17.951  -6.708  43.026  0.00  0.00    +0.142 HD
ENDBRANCH  30  32
ENDBRANCH  26  30
ENDBRANCH  25  27
BRANCH  25  34
ATOM     34  CB  VAL A   2      14.193  -3.000  46.085  0.00  0.00    +0.027 C 
ATOM     35  CG2 VAL A   2      12.756  -3.274  46.523  0.00  0.00    +0.002 C 
ATOM     36  CG1 VAL A   2      14.430  -1.502  45.907  0.00  0.00    +0.002 C 
ENDBRANCH  25  34
ENDBRANCH  21  25
ENDBRANCH  20  23
BRANCH  20  37
ATOM     37  CB  SER A   3      13.812  -0.765  41.120  0.00  0.00    +0.166 C 
BRANCH  37  38
ATOM     38  OG  SER A   3      13.448  -0.497  39.772  0.00  0.00    -0.380 OA
ATOM     39  H   SER A   3      13.294   0.474  39.660  0.00  0.00    +0.211 HD
ENDBRANCH  37  38
ENDBRANCH  20  37
ENDBRANCH  16  20
ENDBRANCH  15  18
ENDBRANCH  11  15
ENDBRANCH  10  12
BRANCH  10  40
ATOM     40  CB  ASN A   5      14.713  -1.438  34.847  0.00  0.00    +0.114 C 
BRANCH  40  41
ATOM     41  CG  ASN A   5      15.426  -0.165  35.225  0.00  0.00    +0.222 C 
ATOM     42  OD1 ASN A   5      15.166   0.426  36.282  0.00  0.00    -0.275 OA
ATOM     43  ND2 ASN A   5      16.334   0.275  34.360  0.00  0.00    -0.329 N 
ATOM     44 HD21 ASN A   5      16.860   1.150  34.558  0.00  0.00    +0.145 HD
ATOM     45 HD22 ASN A   5      16.518  -0.256  33.485  0.00  0.00    +0.145 HD
ENDBRANCH  40  41
ENDBRANCH  10  40
ENDBRANCH   6  10
ENDBRANCH   5   7
BRANCH   5  46
ATOM     46  CB  TYR A   6      11.029  -5.846  35.665  0.00  0.00    +0.055 C 
BRANCH  46  47
ATOM     47  CG  TYR A   6      10.281  -6.845  34.805  0.00  0.00    -0.020 A 
ATOM     48  CD2 TYR A   6       9.414  -7.774  35.382  0.00  0.00    -0.001 A 
ATOM     49  CE2 TYR A   6       8.728  -8.705  34.609  0.00  0.00    +0.036 A 
ATOM     50  CZ  TYR A   6       8.911  -8.725  33.243  0.00  0.00    +0.134 A 
ATOM     51  CE1 TYR A   6       9.772  -7.820  32.638  0.00  0.00    +0.036 A 
ATOM     52  CD1 TYR A   6      10.456  -6.888  33.421  0.00  0.00    -0.001 A 
BRANCH  50  53
ATOM     53  OH  TYR A   6       8.228  -9.654  32.483  0.00  0.00    -0.506 OA
ATOM     54  HH  TYR A   6       7.254  -9.521  32.599  0.00  0.00    +0.292 HD
ENDBRANCH  50  53
ENDBRANCH  46  47
ENDBRANCH   5  46
ENDBRANCH   1   5
BRANCH   2  55
ATOM     55  CA  CYS A   7       8.260  -2.143  37.060  0.00  0.00    +0.160 C 
BRANCH  55  56
ATOM     56  C   CYS A   7       7.237  -1.647  36.010  0.00  0.00    +0.242 C 
ATOM     57  O   CYS A   7       6.113  -2.133  36.016  0.00  0.00    -0.273 OA
ATOM     58  N   THR A   8       7.565  -0.720  35.105  0.00  0.00    -0.295 N 
ATOM     59  H   THR A   8       6.842  -0.492  34.393  0.00  0.00    +0.150 HD
BRANCH  58  60
ATOM     60  CA  THR A   8       8.825   0.008  35.005  0.00  0.00    +0.176 C 
BRANCH  60  61
ATOM     61  C   THR A   8       8.543   1.456  35.385  0.00  0.00    +0.243 C 
ATOM     62  N   ASP A   9       9.374   2.020  36.250  0.00  0.00    -0.296 N 
ATOM     63  H   ASP A   9      10.214   1.491  36.558  0.00  0.00    +0.150 HD
ATOM     64  O   THR A   8       7.595   2.052  34.904  0.00  0.00    -0.273 OA
BRANCH  62  65
ATOM     65  CA  ASP A   9       9.149   3.355  36.782  0.00  0.00    +0.160 C 
BRANCH  65  66
ATOM     66  C   ASP A   9      10.012   4.409  36.094  0.00  0.00    +0.241 C 
ATOM     67  O   ASP A   9      11.230   4.313  36.104  0.00  0.00    -0.273 OA
ATOM     68  N   LYS A  10       9.362   5.406  35.494  0.00  0.00    -0.297 N 
ATOM     69  H   LYS A  10       8.328   5.337  35.413  0.00  0.00    +0.150 HD
BRANCH  68  70
ATOM     70  CA  LYS A  10      10.022   6.599  34.940  0.00  0.00    +0.149 C 
BRANCH  70  71
ATOM     71  C   LYS A  10      11.010   6.360  33.777  0.00  0.00    +0.241 C 
ATOM     72  O   LYS A  10      11.887   7.186  33.530  0.00  0.00    -0.273 OA
ATOM     73  N   LYS A  11      10.861   5.235  33.079  0.00  0.00    -0.298 N 
ATOM     74  H   LYS A  11      10.243   4.492  33.464  0.00  0.00    +0.150 HD
BRANCH  73  75
ATOM     75  CA  LYS A  11      11.527   4.993  31.792  0.00  0.00    +0.137 C 
BRANCH  75  76
ATOM     76  C   LYS A  11      10.504   4.412  30.807  0.00  0.00    +0.227 C 
ATOM     77  O   LYS A  11       9.579   3.716  31.221  0.00  0.00    -0.286 OA
ENDBRANCH  75  76
BRANCH  75  78
ATOM     78  CB  LYS A  11      12.668   3.984  31.930  0.00  0.00    +0.028 C 
BRANCH  78  79
ATOM     79  CG  LYS A  11      13.927   4.503  32.600  0.00  0.00    -0.000 C 
BRANCH  79  80
ATOM     80  CD  LYS A  11      13.887   4.413  34.122  0.00  0.00    -0.024 C 
BRANCH  80  81
ATOM     81  CE  LYS A  11      13.814   2.986  34.636  0.00  0.00    -0.086 C 
BRANCH  81  82
ATOM     82  NZ  LYS A  11      13.841   2.965  36.122  0.00  0.00    +0.380 N 
ATOM     83  HZ1 LYS A  11      13.028   3.499  36.490  0.00  0.00    -0.089 HD
ATOM     84  HZ2 LYS A  11      14.724   3.401  36.458  0.00  0.00    -0.089 HD
ATOM     85  HZ3 LYS A  11      13.790   1.981  36.455  0.00  0.00    -0.089 HD
ENDBRANCH  81  82
ENDBRANCH  80  81
ENDBRANCH  79  80
ENDBRANCH  78  79
ENDBRANCH  75  78
ENDBRANCH  73  75
ENDBRANCH  70  71
BRANCH  70  86
ATOM     86  CB  LYS A  10      10.689   7.407  36.068  0.00  0.00    +0.029 C 
BRANCH  86  87
ATOM     87  CG  LYS A  10       9.716   7.851  37.163  0.00  0.00    +0.000 C 
BRANCH  87  88
ATOM     88  CD  LYS A  10      10.452   8.343  38.397  0.00  0.00    -0.024 C 
BRANCH  88  89
ATOM     89  CE  LYS A  10       9.506   8.886  39.461  0.00  0.00    -0.086 C 
BRANCH  89  90
ATOM     90  NZ  LYS A  10      10.245   9.526  40.583  0.00  0.00    +0.380 N 
ATOM     91  HZ1 LYS A  10       9.566   9.882  41.285  0.00  0.00    -0.089 HD
ATOM     92  HZ2 LYS A  10      10.871   8.825  41.029  0.00  0.00    -0.089 HD
ATOM     93  HZ3 LYS A  10      10.813  10.316  40.216  0.00  0.00    -0.089 HD
ENDBRANCH  89  90
ENDBRANCH  88  89
ENDBRANCH  87  88
ENDBRANCH  86  87
ENDBRANCH  70  86
ENDBRANCH  68  70
ENDBRANCH  65  66
BRANCH  65  94
ATOM     94  CB  ASP A   9       9.431   3.348  38.284  0.00  0.00    +0.143 C 
BRANCH  94  95
ATOM     95  CG  ASP A   9       9.031   4.637  38.954  0.00  0.00    +0.367 C 
ATOM     96  OD2 ASP A   9       9.797   5.239  39.742  0.00  0.00    -0.246 OA
ATOM     97  OD1 ASP A   9       7.905   5.124  38.690  0.00  0.00    -0.246 OA
ENDBRANCH  94  95
ENDBRANCH  65  94
ENDBRANCH  62  65
ENDBRANCH  60  61
BRANCH  60  98
ATOM     98  CB  THR A   8       9.355  -0.066  33.557  0.00  0.00    +0.137 C 
ATOM     99  CG2 THR A   8      10.687   0.647  33.414  0.00  0.00    +0.034 C 
BRANCH  98 100
ATOM    100  OG1 THR A   8       9.658  -1.424  33.216  0.00  0.00    -0.382 OA
ATOM    101  HG1 THR A   8      10.348  -1.772  33.835  0.00  0.00    +0.210 HD
ENDBRANCH  98 100
ENDBRANCH  60  98
ENDBRANCH  58  60
ENDBRANCH  55  56
BRANCH  55 102
ATOM    102  CB  CYS A   7       8.581  -1.064  38.110  0.00  0.00    +0.098 C 
ATOM    103  SG  CYS A   7      10.140  -1.308  39.022  0.00  0.00    -0.080 S 
ENDBRANCH  55 102
ENDBRANCH   2  55
TORSDOF 45
REMARK  Name = ../refined-set-2016/3cdb/3cdb_pocket.pdb
REMARK  230 active torsions:
REMARK  status: ('A' for Active; 'I' for Inactive)
REMARK    1  A    between atoms: _1  and  _3
REMARK    2  A    between atoms: _3  and  _4
REMARK    3  A    between atoms: _3  and  _6
REMARK    4  A    between atoms: _6  and  _7
REMARK    5  A    between atoms: _10  and  _12
REMARK    6  A    between atoms: _12  and  _13
REMARK    7  A    between atoms: _12  and  _15
REMARK    8  A    between atoms: _15  and  _16
REMARK    9  A    between atoms: _16  and  _17
REMARK   10  A    between atoms: _20  and  _22
REMARK   11  A    between atoms: _22  and  _23
REMARK   12  A    between atoms: _25  and  _27
REMARK   13  A    between atoms: _27  and  _28
REMARK   14  A    between atoms: _27  and  _30
REMARK   15  A    between atoms: _32  and  _34
REMARK   16  A    between atoms: _34  and  _35
REMARK   17  A    between atoms: _34  and  _37
REMARK   18  A    between atoms: _37  and  _38
REMARK   19  A    between atoms: _41  and  _43
REMARK   20  A    between atoms: _43  and  _44
REMARK   21  A    between atoms: _43  and  _46
REMARK   22  A    between atoms: _49  and  _51
REMARK   23  A    between atoms: _51  and  _52
REMARK   24  A    between atoms: _55  and  _57
REMARK   25  A    between atoms: _57  and  _58
REMARK   26  A    between atoms: _57  and  _60
REMARK   27  A    between atoms: _60  and  _61
REMARK   28  A    between atoms: _63  and  _65
REMARK   29  A    between atoms: _65  and  _66
REMARK   30  A    between atoms: _65  and  _68
REMARK   31  A    between atoms: _68  and  _69
REMARK   32  A    between atoms: _72  and  _74
REMARK   33  A    between atoms: _74  and  _75
REMARK   34  A    between atoms: _74  and  _77
REMARK   35  A    between atoms: _77  and  _78
REMARK   36  A    between atoms: _78  and  _79
REMARK   37  A    between atoms: _79  and  _80
REMARK   38  A    between atoms: _89  and  _91
REMARK   39  A    between atoms: _91  and  _92
REMARK   40  A    between atoms: _91  and  _94
REMARK   41  A    between atoms: _94  and  _95
REMARK   42  A    between atoms: _95  and  _96
REMARK   43  A    between atoms: _96  and  _97
REMARK   44  A    between atoms: _97  and  _98
REMARK   45  A    between atoms: _102  and  _104
REMARK   46  A    between atoms: _104  and  _105
REMARK   47  A    between atoms: _104  and  _107
REMARK   48  A    between atoms: _107  and  _108
REMARK   49  A    between atoms: _113  and  _115
REMARK   50  A    between atoms: _115  and  _116
REMARK   51  A    between atoms: _115  and  _118
REMARK   52  A    between atoms: _118  and  _119
REMARK   53  A    between atoms: _124  and  _126
REMARK   54  A    between atoms: _126  and  _127
REMARK   55  A    between atoms: _130  and  _132
REMARK   56  A    between atoms: _132  and  _133
REMARK   57  A    between atoms: _132  and  _135
REMARK   58  A    between atoms: _135  and  _136
REMARK   59  A    between atoms: _141  and  _143
REMARK   60  A    between atoms: _143  and  _144
REMARK   61  A    between atoms: _147  and  _149
REMARK   62  A    between atoms: _149  and  _150
REMARK   63  A    between atoms: _153  and  _155
REMARK   64  A    between atoms: _155  and  _156
REMARK   65  A    between atoms: _155  and  _158
REMARK   66  A    between atoms: _158  and  _159
REMARK   67  A    between atoms: _164  and  _166
REMARK   68  A    between atoms: _166  and  _167
REMARK   69  A    between atoms: _166  and  _169
REMARK   70  A    between atoms: _169  and  _170
REMARK   71  A    between atoms: _173  and  _175
REMARK   72  A    between atoms: _175  and  _176
REMARK   73  A    between atoms: _178  and  _180
REMARK   74  A    between atoms: _180  and  _181
REMARK   75  A    between atoms: _180  and  _183
REMARK   76  A    between atoms: _183  and  _184
REMARK   77  A    between atoms: _184  and  _185
REMARK   78  A    between atoms: _188  and  _190
REMARK   79  A    between atoms: _190  and  _191
REMARK   80  A    between atoms: _190  and  _193
REMARK   81  A    between atoms: _193  and  _194
REMARK   82  A    between atoms: _196  and  _198
REMARK   83  A    between atoms: _198  and  _199
REMARK   84  A    between atoms: _198  and  _201
REMARK   85  A    between atoms: _201  and  _202
REMARK   86  A    between atoms: _205  and  _207
REMARK   87  A    between atoms: _207  and  _208
REMARK   88  A    between atoms: _207  and  _210
REMARK   89  A    between atoms: _210  and  _211
REMARK   90  A    between atoms: _211  and  _212
REMARK   91  A    between atoms: _214  and  _216
REMARK   92  A    between atoms: _216  and  _217
REMARK   93  A    between atoms: _220  and  _222
REMARK   94  A    between atoms: _222  and  _223
REMARK   95  A    between atoms: _226  and  _228
REMARK   96  A    between atoms: _228  and  _229
REMARK   97  A    between atoms: _228  and  _231
REMARK   98  A    between atoms: _231  and  _232
REMARK   99  A    between atoms: _235  and  _237
REMARK  100  A    between atoms: _237  and  _238
REMARK  101  A    between atoms: _241  and  _243
REMARK  102  A    between atoms: _243  and  _244
REMARK  103  A    between atoms: _247  and  _249
REMARK  104  A    between atoms: _249  and  _250
REMARK  105  A    between atoms: _252  and  _254
REMARK  106  A    between atoms: _254  and  _255
REMARK  107  A    between atoms: _254  and  _257
REMARK  108  A    between atoms: _257  and  _258
REMARK  109  A    between atoms: _263  and  _265
REMARK  110  A    between atoms: _265  and  _266
REMARK  111  A    between atoms: _268  and  _270
REMARK  112  A    between atoms: _270  and  _271
REMARK  113  A    between atoms: _274  and  _276
REMARK  114  A    between atoms: _276  and  _277
REMARK  115  A    between atoms: _276  and  _279
REMARK  116  A    between atoms: _279  and  _280
REMARK  117  A    between atoms: _280  and  _281
REMARK  118  A    between atoms: _284  and  _286
REMARK  119  A    between atoms: _286  and  _287
REMARK  120  A    between atoms: _286  and  _289
REMARK  121  A    between atoms: _289  and  _290
REMARK  122  A    between atoms: _293  and  _295
REMARK  123  A    between atoms: _295  and  _296
REMARK  124  A    between atoms: _295  and  _298
REMARK  125  A    between atoms: _298  and  _299
REMARK  126  A    between atoms: _299  and  _300
REMARK  127  A    between atoms: _300  and  _301
REMARK  128  A    between atoms: _310  and  _312
REMARK  129  A    between atoms: _312  and  _313
REMARK  130  A    between atoms: _316  and  _317
REMARK  131  A    between atoms: _322  and  _324
REMARK  132  A    between atoms: _324  and  _325
REMARK  133  A    between atoms: _324  and  _327
REMARK  134  A    between atoms: _327  and  _328
REMARK  135  A    between atoms: _328  and  _329
REMARK  136  A    between atoms: _331  and  _333
REMARK  137  A    between atoms: _333  and  _334
REMARK  138  A    between atoms: _333  and  _336
REMARK  139  A    between atoms: _336  and  _337
REMARK  140  A    between atoms: _337  and  _338
REMARK  141  A    between atoms: _340  and  _342
REMARK  142  A    between atoms: _342  and  _343
REMARK  143  A    between atoms: _342  and  _345
REMARK  144  A    between atoms: _345  and  _346
REMARK  145  A    between atoms: _351  and  _353
REMARK  146  A    between atoms: _353  and  _354
REMARK  147  A    between atoms: _353  and  _356
REMARK  148  A    between atoms: _356  and  _357
REMARK  149  A    between atoms: _360  and  _362
REMARK  150  A    between atoms: _362  and  _363
REMARK  151  A    between atoms: _362  and  _365
REMARK  152  A    between atoms: _365  and  _366
REMARK  153  A    between atoms: _368  and  _370
REMARK  154  A    between atoms: _370  and  _371
REMARK  155  A    between atoms: _370  and  _373
REMARK  156  A    between atoms: _373  and  _374
REMARK  157  A    between atoms: _374  and  _375
REMARK  158  A    between atoms: _375  and  _376
REMARK  159  A    between atoms: _376  and  _377
REMARK  160  A    between atoms: _381  and  _383
REMARK  161  A    between atoms: _383  and  _384
REMARK  162  A    between atoms: _383  and  _386
REMARK  163  A    between atoms: _386  and  _387
REMARK  164  A    between atoms: _390  and  _392
REMARK  165  A    between atoms: _392  and  _393
REMARK  166  A    between atoms: _392  and  _395
REMARK  167  A    between atoms: _395  and  _396
REMARK  168  A    between atoms: _396  and  _397
REMARK  169  A    between atoms: _400  and  _402
REMARK  170  A    between atoms: _402  and  _403
REMARK  171  A    between atoms: _406  and  _408
REMARK  172  A    between atoms: _408  and  _409
REMARK  173  A    between atoms: _408  and  _411
REMARK  174  A    between atoms: _414  and  _416
REMARK  175  A    between atoms: _416  and  _417
REMARK  176  A    between atoms: _416  and  _419
REMARK  177  A    between atoms: _419  and  _420
REMARK  178  A    between atoms: _422  and  _424
REMARK  179  A    between atoms: _424  and  _425
REMARK  180  A    between atoms: _427  and  _429
REMARK  181  A    between atoms: _429  and  _430
REMARK  182  A    between atoms: _429  and  _432
REMARK  183  A    between atoms: _432  and  _433
REMARK  184  A    between atoms: _438  and  _440
REMARK  185  A    between atoms: _440  and  _441
REMARK  186  A    between atoms: _440  and  _443
REMARK  187  A    between atoms: _443  and  _444
REMARK  188  A    between atoms: _449  and  _450
REMARK  189  A    between atoms: _452  and  _454
REMARK  190  A    between atoms: _454  and  _455
REMARK  191  A    between atoms: _454  and  _457
REMARK  192  A    between atoms: _459  and  _461
REMARK  193  A    between atoms: _461  and  _462
REMARK  194  A    between atoms: _461  and  _464
REMARK  195  A    between atoms: _464  and  _465
REMARK  196  A    between atoms: _468  and  _470
REMARK  197  A    between atoms: _470  and  _471
REMARK  198  A    between atoms: _470  and  _473
REMARK  199  A    between atoms: _473  and  _474
REMARK  200  A    between atoms: _477  and  _479
REMARK  201  A    between atoms: _479  and  _480
REMARK  202  A    between atoms: _479  and  _482
REMARK  203  A    between atoms: _482  and  _483
REMARK  204  A    between atoms: _483  and  _484
REMARK  205  A    between atoms: _484  and  _485
REMARK  206  A    between atoms: _485  and  _486
REMARK  207  A    between atoms: _490  and  _492
REMARK  208  A    between atoms: _492  and  _493
REMARK  209  A    between atoms: _492  and  _495
REMARK  210  A    between atoms: _495  and  _496
REMARK  211  A    between atoms: _496  and  _497
REMARK  212  A    between atoms: _497  and  _498
REMARK  213  A    between atoms: _498  and  _499
REMARK  214  A    between atoms: _503  and  _505
REMARK  215  A    between atoms: _505  and  _506
REMARK  216  A    between atoms: _505  and  _508
REMARK  217  A    between atoms: _508  and  _509
REMARK  218  A    between atoms: _509  and  _510
REMARK  219  A    between atoms: _510  and  _511
REMARK  220  A    between atoms: _520  and  _522
REMARK  221  A    between atoms: _522  and  _523
REMARK  222  A    between atoms: _522  and  _525
REMARK  223  A    between atoms: _525  and  _526
REMARK  224  A    between atoms: _529  and  _531
REMARK  225  A    between atoms: _531  and  _532
REMARK  226  A    between atoms: _535  and  _537
REMARK  227  A    between atoms: _537  and  _538
REMARK  228  A    between atoms: _537  and  _540
REMARK  229  A    between atoms: _540  and  _541
REMARK  230  A    between atoms: _541  and  _542
REMARK                            x       y       z     vdW  Elec       q    Type
REMARK                         _______ _______ _______ _____ _____    ______ ____
ROOT
ATOM      1  NE  ARG A   1       5.217   1.014  37.632  0.00  0.00    -0.265 N 
ATOM      2  CZ  ARG A   1       5.819   2.014  38.274  0.00  0.00    +0.342 C 
ATOM      3  NH2 ARG A   1       6.454   1.761  39.406  0.00  0.00    -0.292 N 
ATOM      4 HH21 ARG A   1       6.929   2.531  39.919  0.00  0.00    +0.255 HD
ATOM      5 HH22 ARG A   1       6.478   0.792  39.783  0.00  0.00    +0.255 HD
ATOM      6  NH1 ARG A   1       5.811   3.256  37.802  0.00  0.00    -0.292 N 
ATOM      7 HH11 ARG A   1       6.290   4.015  38.327  0.00  0.00    +0.255 HD
ATOM      8 HH12 ARG A   1       5.325   3.469  36.907  0.00  0.00    +0.255 HD
ATOM      9  HE  ARG A   1       5.279   0.069  38.061  0.00  0.00    +0.259 HD
ENDROOT
BRANCH   1  10
ATOM     10  CD  ARG A   1       4.475   1.130  36.375  0.00  0.00    +0.174 C 
BRANCH  10  11
ATOM     11  CG  ARG A   1       2.981   0.985  36.576  0.00  0.00    +0.045 C 
BRANCH  11  12
ATOM     12  CB  ARG A   1       2.231   0.652  35.302  0.00  0.00    +0.029 C 
BRANCH  12  13
ATOM     13  CA  ARG A   1       0.758   0.318  35.503  0.00  0.00    +0.133 C 
BRANCH  13  14
ATOM     14  N   ARG A   1       0.126  -0.044  34.235  0.00  0.00    -0.239 NA
ATOM     15  H   ARG A   1      -0.402   0.684  33.713  0.00  0.00    +0.142 HD
ENDBRANCH  13  14
BRANCH  13  16
ATOM     16  C   ARG A   1       0.017   1.515  36.065  0.00  0.00    +0.224 C 
ATOM     17  O   ARG A   1      -0.199   2.491  35.361  0.00  0.00    -0.287 OA
ENDBRANCH  13  16
ENDBRANCH  12  13
ENDBRANCH  11  12
ENDBRANCH  10  11
ENDBRANCH   1  10
TORSDOF 6
REMARK  Name = ../refined-set-2016/3cdb/3cdb_pocket.pdb
REMARK  230 active torsions:
REMARK  status: ('A' for Active; 'I' for Inactive)
REMARK    1  A    between atoms: _1  and  _3
REMARK    2  A    between atoms: _3  and  _4
REMARK    3  A    between atoms: _3  and  _6
REMARK    4  A    between atoms: _6  and  _7
REMARK    5  A    between atoms: _10  and  _12
REMARK    6  A    between atoms: _12  and  _13
REMARK    7  A    between atoms: _12  and  _15
REMARK    8  A    between atoms: _15  and  _16
REMARK    9  A    between atoms: _16  and  _17
REMARK   10  A    between atoms: _20  and  _22
REMARK   11  A    between atoms: _22  and  _23
REMARK   12  A    between atoms: _25  and  _27
REMARK   13  A    between atoms: _27  and  _28
REMARK   14  A    between atoms: _27  and  _30
REMARK   15  A    between atoms: _32  and  _34
REMARK   16  A    between atoms: _34  and  _35
REMARK   17  A    between atoms: _34  and  _37
REMARK   18  A    between atoms: _37  and  _38
REMARK   19  A    between atoms: _41  and  _43
REMARK   20  A    between atoms: _43  and  _44
REMARK   21  A    between atoms: _43  and  _46
REMARK   22  A    between atoms: _49  and  _51
REMARK   23  A    between atoms: _51  and  _52
REMARK   24  A    between atoms: _55  and  _57
REMARK   25  A    between atoms: _57  and  _58
REMARK   26  A    between atoms: _57  and  _60
REMARK   27  A    between atoms: _60  and  _61
REMARK   28  A    between atoms: _63  and  _65
REMARK   29  A    between atoms: _65  and  _66
REMARK   30  A    between atoms: _65  and  _68
REMARK   31  A    between atoms: _68  and  _69
REMARK   32  A    between atoms: _72  and  _74
REMARK   33  A    between atoms: _74  and  _75
REMARK   34  A    between atoms: _74  and  _77
REMARK   35  A    between atoms: _77  and  _78
REMARK   36  A    between atoms: _78  and  _79
REMARK   37  A    between atoms: _79  and  _80
REMARK   38  A    between atoms: _89  and  _91
REMARK   39  A    between atoms: _91  and  _92
REMARK   40  A    between atoms: _91  and  _94
REMARK   41  A    between atoms: _94  and  _95
REMARK   42  A    between atoms: _95  and  _96
REMARK   43  A    between atoms: _96  and  _97
REMARK   44  A    between atoms: _97  and  _98
REMARK   45  A    between atoms: _102  and  _104
REMARK   46  A    between atoms: _104  and  _105
REMARK   47  A    between atoms: _104  and  _107
REMARK   48  A    between atoms: _107  and  _108
REMARK   49  A    between atoms: _113  and  _115
REMARK   50  A    between atoms: _115  and  _116
REMARK   51  A    between atoms: _115  and  _118
REMARK   52  A    between atoms: _118  and  _119
REMARK   53  A    between atoms: _124  and  _126
REMARK   54  A    between atoms: _126  and  _127
REMARK   55  A    between atoms: _130  and  _132
REMARK   56  A    between atoms: _132  and  _133
REMARK   57  A    between atoms: _132  and  _135
REMARK   58  A    between atoms: _135  and  _136
REMARK   59  A    between atoms: _141  and  _143
REMARK   60  A    between atoms: _143  and  _144
REMARK   61  A    between atoms: _147  and  _149
REMARK   62  A    between atoms: _149  and  _150
REMARK   63  A    between atoms: _153  and  _155
REMARK   64  A    between atoms: _155  and  _156
REMARK   65  A    between atoms: _155  and  _158
REMARK   66  A    between atoms: _158  and  _159
REMARK   67  A    between atoms: _164  and  _166
REMARK   68  A    between atoms: _166  and  _167
REMARK   69  A    between atoms: _166  and  _169
REMARK   70  A    between atoms: _169  and  _170
REMARK   71  A    between atoms: _173  and  _175
REMARK   72  A    between atoms: _175  and  _176
REMARK   73  A    between atoms: _178  and  _180
REMARK   74  A    between atoms: _180  and  _181
REMARK   75  A    between atoms: _180  and  _183
REMARK   76  A    between atoms: _183  and  _184
REMARK   77  A    between atoms: _184  and  _185
REMARK   78  A    between atoms: _188  and  _190
REMARK   79  A    between atoms: _190  and  _191
REMARK   80  A    between atoms: _190  and  _193
REMARK   81  A    between atoms: _193  and  _194
REMARK   82  A    between atoms: _196  and  _198
REMARK   83  A    between atoms: _198  and  _199
REMARK   84  A    between atoms: _198  and  _201
REMARK   85  A    between atoms: _201  and  _202
REMARK   86  A    between atoms: _205  and  _207
REMARK   87  A    between atoms: _207  and  _208
REMARK   88  A    between atoms: _207  and  _210
REMARK   89  A    between atoms: _210  and  _211
REMARK   90  A    between atoms: _211  and  _212
REMARK   91  A    between atoms: _214  and  _216
REMARK   92  A    between atoms: _216  and  _217
REMARK   93  A    between atoms: _220  and  _222
REMARK   94  A    between atoms: _222  and  _223
REMARK   95  A    between atoms: _226  and  _228
REMARK   96  A    between atoms: _228  and  _229
REMARK   97  A    between atoms: _228  and  _231
REMARK   98  A    between atoms: _231  and  _232
REMARK   99  A    between atoms: _235  and  _237
REMARK  100  A    between atoms: _237  and  _238
REMARK  101  A    between atoms: _241  and  _243
REMARK  102  A    between atoms: _243  and  _244
REMARK  103  A    between atoms: _247  and  _249
REMARK  104  A    between atoms: _249  and  _250
REMARK  105  A    between atoms: _252  and  _254
REMARK  106  A    between atoms: _254  and  _255
REMARK  107  A    between atoms: _254  and  _257
REMARK  108  A    between atoms: _257  and  _258
REMARK  109  A    between atoms: _263  and  _265
REMARK  110  A    between atoms: _265  and  _266
REMARK  111  A    between atoms: _268  and  _270
REMARK  112  A    between atoms: _270  and  _271
REMARK  113  A    between atoms: _274  and  _276
REMARK  114  A    between atoms: _276  and  _277
REMARK  115  A    between atoms: _276  and  _279
REMARK  116  A    between atoms: _279  and  _280
REMARK  117  A    between atoms: _280  and  _281
REMARK  118  A    between atoms: _284  and  _286
REMARK  119  A    between atoms: _286  and  _287
REMARK  120  A    between atoms: _286  and  _289
REMARK  121  A    between atoms: _289  and  _290
REMARK  122  A    between atoms: _293  and  _295
REMARK  123  A    between atoms: _295  and  _296
REMARK  124  A    between atoms: _295  and  _298
REMARK  125  A    between atoms: _298  and  _299
REMARK  126  A    between atoms: _299  and  _300
REMARK  127  A    between atoms: _300  and  _301
REMARK  128  A    between atoms: _310  and  _312
REMARK  129  A    between atoms: _312  and  _313
REMARK  130  A    between atoms: _316  and  _317
REMARK  131  A    between atoms: _322  and  _324
REMARK  132  A    between atoms: _324  and  _325
REMARK  133  A    between atoms: _324  and  _327
REMARK  134  A    between atoms: _327  and  _328
REMARK  135  A    between atoms: _328  and  _329
REMARK  136  A    between atoms: _331  and  _333
REMARK  137  A    between atoms: _333  and  _334
REMARK  138  A    between atoms: _333  and  _336
REMARK  139  A    between atoms: _336  and  _337
REMARK  140  A    between atoms: _337  and  _338
REMARK  141  A    between atoms: _340  and  _342
REMARK  142  A    between atoms: _342  and  _343
REMARK  143  A    between atoms: _342  and  _345
REMARK  144  A    between atoms: _345  and  _346
REMARK  145  A    between atoms: _351  and  _353
REMARK  146  A    between atoms: _353  and  _354
REMARK  147  A    between atoms: _353  and  _356
REMARK  148  A    between atoms: _356  and  _357
REMARK  149  A    between atoms: _360  and  _362
REMARK  150  A    between atoms: _362  and  _363
REMARK  151  A    between atoms: _362  and  _365
REMARK  152  A    between atoms: _365  and  _366
REMARK  153  A    between atoms: _368  and  _370
REMARK  154  A    between atoms: _370  and  _371
REMARK  155  A    between atoms: _370  and  _373
REMARK  156  A    between atoms: _373  and  _374
REMARK  157  A    between atoms: _374  and  _375
REMARK  158  A    between atoms: _375  and  _376
REMARK  159  A    between atoms: _376  and  _377
REMARK  160  A    between atoms: _381  and  _383
REMARK  161  A    between atoms: _383  and  _384
REMARK  162  A    between atoms: _383  and  _386
REMARK  163  A    between atoms: _386  and  _387
REMARK  164  A    between atoms: _390  and  _392
REMARK  165  A    between atoms: _392  and  _393
REMARK  166  A    between atoms: _392  and  _395
REMARK  167  A    between atoms: _395  and  _396
REMARK  168  A    between atoms: _396  and  _397
REMARK  169  A    between atoms: _400  and  _402
REMARK  170  A    between atoms: _402  and  _403
REMARK  171  A    between atoms: _406  and  _408
REMARK  172  A    between atoms: _408  and  _409
REMARK  173  A    between atoms: _408  and  _411
REMARK  174  A    between atoms: _414  and  _416
REMARK  175  A    between atoms: _416  and  _417
REMARK  176  A    between atoms: _416  and  _419
REMARK  177  A    between atoms: _419  and  _420
REMARK  178  A    between atoms: _422  and  _424
REMARK  179  A    between atoms: _424  and  _425
REMARK  180  A    between atoms: _427  and  _429
REMARK  181  A    between atoms: _429  and  _430
REMARK  182  A    between atoms: _429  and  _432
REMARK  183  A    between atoms: _432  and  _433
REMARK  184  A    between atoms: _438  and  _440
REMARK  185  A    between atoms: _440  and  _441
REMARK  186  A    between atoms: _440  and  _443
REMARK  187  A    between atoms: _443  and  _444
REMARK  188  A    between atoms: _449  and  _450
REMARK  189  A    between atoms: _452  and  _454
REMARK  190  A    between atoms: _454  and  _455
REMARK  191  A    between atoms: _454  and  _457
REMARK  192  A    between atoms: _459  and  _461
REMARK  193  A    between atoms: _461  and  _462
REMARK  194  A    between atoms: _461  and  _464
REMARK  195  A    between atoms: _464  and  _465
REMARK  196  A    between atoms: _468  and  _470
REMARK  197  A    between atoms: _470  and  _471
REMARK  198  A    between atoms: _470  and  _473
REMARK  199  A    between atoms: _473  and  _474
REMARK  200  A    between atoms: _477  and  _479
REMARK  201  A    between atoms: _479  and  _480
REMARK  202  A    between atoms: _479  and  _482
REMARK  203  A    between atoms: _482  and  _483
REMARK  204  A    between atoms: _483  and  _484
REMARK  205  A    between atoms: _484  and  _485
REMARK  206  A    between atoms: _485  and  _486
REMARK  207  A    between atoms: _490  and  _492
REMARK  208  A    between atoms: _492  and  _493
REMARK  209  A    between atoms: _492  and  _495
REMARK  210  A    between atoms: _495  and  _496
REMARK  211  A    between atoms: _496  and  _497
REMARK  212  A    between atoms: _497  and  _498
REMARK  213  A    between atoms: _498  and  _499
REMARK  214  A    between atoms: _503  and  _505
REMARK  215  A    between atoms: _505  and  _506
REMARK  216  A    between atoms: _505  and  _508
REMARK  217  A    between atoms: _508  and  _509
REMARK  218  A    between atoms: _509  and  _510
REMARK  219  A    between atoms: _510  and  _511
REMARK  220  A    between atoms: _520  and  _522
REMARK  221  A    between atoms: _522  and  _523
REMARK  222  A    between atoms: _522  and  _525
REMARK  223  A    between atoms: _525  and  _526
REMARK  224  A    between atoms: _529  and  _531
REMARK  225  A    between atoms: _531  and  _532
REMARK  226  A    between atoms: _535  and  _537
REMARK  227  A    between atoms: _537  and  _538
REMARK  228  A    between atoms: _537  and  _540
REMARK  229  A    between atoms: _540  and  _541
REMARK  230  A    between atoms: _541  and  _542
REMARK                            x       y       z     vdW  Elec       q    Type
REMARK                         _______ _______ _______ _____ _____    ______ ____
ROOT
ATOM      1  CA  ASP A   1       5.488  13.173  40.516  0.00  0.00    +0.144 C 
ENDROOT
BRANCH   1   2
ATOM      2  N   ASP A   1       4.108  13.325  40.951  0.00  0.00    -0.239 NA
ATOM      3  H   ASP A   1       3.541  12.469  41.116  0.00  0.00    +0.142 HD
ENDBRANCH   1   2
BRANCH   1   4
ATOM      4  C   ASP A   1       5.483  13.428  39.013  0.00  0.00    +0.225 C 
ATOM      5  O   ASP A   1       4.984  12.610  38.250  0.00  0.00    -0.287 OA
ENDBRANCH   1   4
BRANCH   1   6
ATOM      6  CB  ASP A   1       5.976  11.753  40.833  0.00  0.00    +0.139 C 
BRANCH   6   7
ATOM      7  CG  ASP A   1       7.490  11.617  40.809  0.00  0.00    +0.367 C 
ATOM      8  OD2 ASP A   1       8.095  10.830  41.571  0.00  0.00    -0.246 OA
ATOM      9  OD1 ASP A   1       8.159  12.294  39.996  0.00  0.00    -0.246 OA
ENDBRANCH   6   7
ENDBRANCH   1   6
TORSDOF 4
REMARK  Name = ../refined-set-2016/3cdb/3cdb_pocket.pdb
REMARK  230 active torsions:
REMARK  status: ('A' for Active; 'I' for Inactive)
REMARK    1  A    between atoms: _1  and  _3
REMARK    2  A    between atoms: _3  and  _4
REMARK    3  A    between atoms: _3  and  _6
REMARK    4  A    between atoms: _6  and  _7
REMARK    5  A    between atoms: _10  and  _12
REMARK    6  A    between atoms: _12  and  _13
REMARK    7  A    between atoms: _12  and  _15
REMARK    8  A    between atoms: _15  and  _16
REMARK    9  A    between atoms: _16  and  _17
REMARK   10  A    between atoms: _20  and  _22
REMARK   11  A    between atoms: _22  and  _23
REMARK   12  A    between atoms: _25  and  _27
REMARK   13  A    between atoms: _27  and  _28
REMARK   14  A    between atoms: _27  and  _30
REMARK   15  A    between atoms: _32  and  _34
REMARK   16  A    between atoms: _34  and  _35
REMARK   17  A    between atoms: _34  and  _37
REMARK   18  A    between atoms: _37  and  _38
REMARK   19  A    between atoms: _41  and  _43
REMARK   20  A    between atoms: _43  and  _44
REMARK   21  A    between atoms: _43  and  _46
REMARK   22  A    between atoms: _49  and  _51
REMARK   23  A    between atoms: _51  and  _52
REMARK   24  A    between atoms: _55  and  _57
REMARK   25  A    between atoms: _57  and  _58
REMARK   26  A    between atoms: _57  and  _60
REMARK   27  A    between atoms: _60  and  _61
REMARK   28  A    between atoms: _63  and  _65
REMARK   29  A    between atoms: _65  and  _66
REMARK   30  A    between atoms: _65  and  _68
REMARK   31  A    between atoms: _68  and  _69
REMARK   32  A    between atoms: _72  and  _74
REMARK   33  A    between atoms: _74  and  _75
REMARK   34  A    between atoms: _74  and  _77
REMARK   35  A    between atoms: _77  and  _78
REMARK   36  A    between atoms: _78  and  _79
REMARK   37  A    between atoms: _79  and  _80
REMARK   38  A    between atoms: _89  and  _91
REMARK   39  A    between atoms: _91  and  _92
REMARK   40  A    between atoms: _91  and  _94
REMARK   41  A    between atoms: _94  and  _95
REMARK   42  A    between atoms: _95  and  _96
REMARK   43  A    between atoms: _96  and  _97
REMARK   44  A    between atoms: _97  and  _98
REMARK   45  A    between atoms: _102  and  _104
REMARK   46  A    between atoms: _104  and  _105
REMARK   47  A    between atoms: _104  and  _107
REMARK   48  A    between atoms: _107  and  _108
REMARK   49  A    between atoms: _113  and  _115
REMARK   50  A    between atoms: _115  and  _116
REMARK   51  A    between atoms: _115  and  _118
REMARK   52  A    between atoms: _118  and  _119
REMARK   53  A    between atoms: _124  and  _126
REMARK   54  A    between atoms: _126  and  _127
REMARK   55  A    between atoms: _130  and  _132
REMARK   56  A    between atoms: _132  and  _133
REMARK   57  A    between atoms: _132  and  _135
REMARK   58  A    between atoms: _135  and  _136
REMARK   59  A    between atoms: _141  and  _143
REMARK   60  A    between atoms: _143  and  _144
REMARK   61  A    between atoms: _147  and  _149
REMARK   62  A    between atoms: _149  and  _150
REMARK   63  A    between atoms: _153  and  _155
REMARK   64  A    between atoms: _155  and  _156
REMARK   65  A    between atoms: _155  and  _158
REMARK   66  A    between atoms: _158  and  _159
REMARK   67  A    between atoms: _164  and  _166
REMARK   68  A    between atoms: _166  and  _167
REMARK   69  A    between atoms: _166  and  _169
REMARK   70  A    between atoms: _169  and  _170
REMARK   71  A    between atoms: _173  and  _175
REMARK   72  A    between atoms: _175  and  _176
REMARK   73  A    between atoms: _178  and  _180
REMARK   74  A    between atoms: _180  and  _181
REMARK   75  A    between atoms: _180  and  _183
REMARK   76  A    between atoms: _183  and  _184
REMARK   77  A    between atoms: _184  and  _185
REMARK   78  A    between atoms: _188  and  _190
REMARK   79  A    between atoms: _190  and  _191
REMARK   80  A    between atoms: _190  and  _193
REMARK   81  A    between atoms: _193  and  _194
REMARK   82  A    between atoms: _196  and  _198
REMARK   83  A    between atoms: _198  and  _199
REMARK   84  A    between atoms: _198  and  _201
REMARK   85  A    between atoms: _201  and  _202
REMARK   86  A    between atoms: _205  and  _207
REMARK   87  A    between atoms: _207  and  _208
REMARK   88  A    between atoms: _207  and  _210
REMARK   89  A    between atoms: _210  and  _211
REMARK   90  A    between atoms: _211  and  _212
REMARK   91  A    between atoms: _214  and  _216
REMARK   92  A    between atoms: _216  and  _217
REMARK   93  A    between atoms: _220  and  _222
REMARK   94  A    between atoms: _222  and  _223
REMARK   95  A    between atoms: _226  and  _228
REMARK   96  A    between atoms: _228  and  _229
REMARK   97  A    between atoms: _228  and  _231
REMARK   98  A    between atoms: _231  and  _232
REMARK   99  A    between atoms: _235  and  _237
REMARK  100  A    between atoms: _237  and  _238
REMARK  101  A    between atoms: _241  and  _243
REMARK  102  A    between atoms: _243  and  _244
REMARK  103  A    between atoms: _247  and  _249
REMARK  104  A    between atoms: _249  and  _250
REMARK  105  A    between atoms: _252  and  _254
REMARK  106  A    between atoms: _254  and  _255
REMARK  107  A    between atoms: _254  and  _257
REMARK  108  A    between atoms: _257  and  _258
REMARK  109  A    between atoms: _263  and  _265
REMARK  110  A    between atoms: _265  and  _266
REMARK  111  A    between atoms: _268  and  _270
REMARK  112  A    between atoms: _270  and  _271
REMARK  113  A    between atoms: _274  and  _276
REMARK  114  A    between atoms: _276  and  _277
REMARK  115  A    between atoms: _276  and  _279
REMARK  116  A    between atoms: _279  and  _280
REMARK  117  A    between atoms: _280  and  _281
REMARK  118  A    between atoms: _284  and  _286
REMARK  119  A    between atoms: _286  and  _287
REMARK  120  A    between atoms: _286  and  _289
REMARK  121  A    between atoms: _289  and  _290
REMARK  122  A    between atoms: _293  and  _295
REMARK  123  A    between atoms: _295  and  _296
REMARK  124  A    between atoms: _295  and  _298
REMARK  125  A    between atoms: _298  and  _299
REMARK  126  A    between atoms: _299  and  _300
REMARK  127  A    between atoms: _300  and  _301
REMARK  128  A    between atoms: _310  and  _312
REMARK  129  A    between atoms: _312  and  _313
REMARK  130  A    between atoms: _316  and  _317
REMARK  131  A    between atoms: _322  and  _324
REMARK  132  A    between atoms: _324  and  _325
REMARK  133  A    between atoms: _324  and  _327
REMARK  134  A    between atoms: _327  and  _328
REMARK  135  A    between atoms: _328  and  _329
REMARK  136  A    between atoms: _331  and  _333
REMARK  137  A    between atoms: _333  and  _334
REMARK  138  A    between atoms: _333  and  _336
REMARK  139  A    between atoms: _336  and  _337
REMARK  140  A    between atoms: _337  and  _338
REMARK  141  A    between atoms: _340  and  _342
REMARK  142  A    between atoms: _342  and  _343
REMARK  143  A    between atoms: _342  and  _345
REMARK  144  A    between atoms: _345  and  _346
REMARK  145  A    between atoms: _351  and  _353
REMARK  146  A    between atoms: _353  and  _354
REMARK  147  A    between atoms: _353  and  _356
REMARK  148  A    between atoms: _356  and  _357
REMARK  149  A    between atoms: _360  and  _362
REMARK  150  A    between atoms: _362  and  _363
REMARK  151  A    between atoms: _362  and  _365
REMARK  152  A    between atoms: _365  and  _366
REMARK  153  A    between atoms: _368  and  _370
REMARK  154  A    between atoms: _370  and  _371
REMARK  155  A    between atoms: _370  and  _373
REMARK  156  A    between atoms: _373  and  _374
REMARK  157  A    between atoms: _374  and  _375
REMARK  158  A    between atoms: _375  and  _376
REMARK  159  A    between atoms: _376  and  _377
REMARK  160  A    between atoms: _381  and  _383
REMARK  161  A    between atoms: _383  and  _384
REMARK  162  A    between atoms: _383  and  _386
REMARK  163  A    between atoms: _386  and  _387
REMARK  164  A    between atoms: _390  and  _392
REMARK  165  A    between atoms: _392  and  _393
REMARK  166  A    between atoms: _392  and  _395
REMARK  167  A    between atoms: _395  and  _396
REMARK  168  A    between atoms: _396  and  _397
REMARK  169  A    between atoms: _400  and  _402
REMARK  170  A    between atoms: _402  and  _403
REMARK  171  A    between atoms: _406  and  _408
REMARK  172  A    between atoms: _408  and  _409
REMARK  173  A    between atoms: _408  and  _411
REMARK  174  A    between atoms: _414  and  _416
REMARK  175  A    between atoms: _416  and  _417
REMARK  176  A    between atoms: _416  and  _419
REMARK  177  A    between atoms: _419  and  _420
REMARK  178  A    between atoms: _422  and  _424
REMARK  179  A    between atoms: _424  and  _425
REMARK  180  A    between atoms: _427  and  _429
REMARK  181  A    between atoms: _429  and  _430
REMARK  182  A    between atoms: _429  and  _432
REMARK  183  A    between atoms: _432  and  _433
REMARK  184  A    between atoms: _438  and  _440
REMARK  185  A    between atoms: _440  and  _441
REMARK  186  A    between atoms: _440  and  _443
REMARK  187  A    between atoms: _443  and  _444
REMARK  188  A    between atoms: _449  and  _450
REMARK  189  A    between atoms: _452  and  _454
REMARK  190  A    between atoms: _454  and  _455
REMARK  191  A    between atoms: _454  and  _457
REMARK  192  A    between atoms: _459  and  _461
REMARK  193  A    between atoms: _461  and  _462
REMARK  194  A    between atoms: _461  and  _464
REMARK  195  A    between atoms: _464  and  _465
REMARK  196  A    between atoms: _468  and  _470
REMARK  197  A    between atoms: _470  and  _471
REMARK  198  A    between atoms: _470  and  _473
REMARK  199  A    between atoms: _473  and  _474
REMARK  200  A    between atoms: _477  and  _479
REMARK  201  A    between atoms: _479  and  _480
REMARK  202  A    between atoms: _479  and  _482
REMARK  203  A    between atoms: _482  and  _483
REMARK  204  A    between atoms: _483  and  _484
REMARK  205  A    between atoms: _484  and  _485
REMARK  206  A    between atoms: _485  and  _486
REMARK  207  A    between atoms: _490  and  _492
REMARK  208  A    between atoms: _492  and  _493
REMARK  209  A    between atoms: _492  and  _495
REMARK  210  A    between atoms: _495  and  _496
REMARK  211  A    between atoms: _496  and  _497
REMARK  212  A    between atoms: _497  and  _498
REMARK  213  A    between atoms: _498  and  _499
REMARK  214  A    between atoms: _503  and  _505
REMARK  215  A    between atoms: _505  and  _506
REMARK  216  A    between atoms: _505  and  _508
REMARK  217  A    between atoms: _508  and  _509
REMARK  218  A    between atoms: _509  and  _510
REMARK  219  A    between atoms: _510  and  _511
REMARK  220  A    between atoms: _520  and  _522
REMARK  221  A    between atoms: _522  and  _523
REMARK  222  A    between atoms: _522  and  _525
REMARK  223  A    between atoms: _525  and  _526
REMARK  224  A    between atoms: _529  and  _531
REMARK  225  A    between atoms: _531  and  _532
REMARK  226  A    between atoms: _535  and  _537
REMARK  227  A    between atoms: _537  and  _538
REMARK  228  A    between atoms: _537  and  _540
REMARK  229  A    between atoms: _540  and  _541
REMARK  230  A    between atoms: _541  and  _542
REMARK                            x       y       z     vdW  Elec       q    Type
REMARK                         _______ _______ _______ _____ _____    ______ ____
ROOT
ATOM      1  CA  GLN A   2       6.168   9.904  35.937  0.00  0.00    +0.137 C 
ENDROOT
BRANCH   1   3
ATOM      2  C   ALA A   1       8.082  11.390  35.684  0.00  0.00    +0.238 C 
ATOM      3  N   GLN A   2       6.979  11.046  36.340  0.00  0.00    -0.298 N 
ATOM      4  H   GLN A   2       6.686  11.608  37.165  0.00  0.00    +0.150 HD
ATOM      5  O   ALA A   1       8.513  10.755  34.723  0.00  0.00    -0.274 OA
BRANCH   2   6
ATOM      6  CA  ALA A   1       8.802  12.647  36.175  0.00  0.00    +0.145 C 
ATOM      7  CB  ALA A   1      10.008  12.278  37.031  0.00  0.00    +0.028 C 
BRANCH   6   8
ATOM      8  N   ALA A   1       7.884  13.512  36.917  0.00  0.00    -0.238 NA
ATOM      9  H   ALA A   1       7.990  13.597  37.948  0.00  0.00    +0.142 HD
ENDBRANCH   6   8
ENDBRANCH   2   6
ENDBRANCH   1   3
BRANCH   1  10
ATOM     10  C   GLN A   2       5.280  10.189  34.721  0.00  0.00    +0.227 C 
ATOM     11  O   GLN A   2       4.507   9.331  34.305  0.00  0.00    -0.286 OA
ENDBRANCH   1  10
BRANCH   1  12
ATOM     12  CB  GLN A   2       5.325   9.405  37.115  0.00  0.00    +0.037 C 
BRANCH  12  13
ATOM     13  CG  GLN A   2       6.146   8.651  38.152  0.00  0.00    +0.087 C 
BRANCH  13  14
ATOM     14  CD  GLN A   2       5.293   7.944  39.179  0.00  0.00    +0.219 C 
ATOM     15  NE2 GLN A   2       5.732   6.765  39.613  0.00  0.00    -0.329 N 
ATOM     16 HE21 GLN A   2       5.187   6.237  40.325  0.00  0.00    +0.145 HD
ATOM     17 HE22 GLN A   2       6.620   6.371  39.240  0.00  0.00    +0.145 HD
ATOM     18  OE1 GLN A   2       4.250   8.462  39.582  0.00  0.00    -0.275 OA
ENDBRANCH  13  14
ENDBRANCH  12  13
ENDBRANCH   1  12
TORSDOF 7
REMARK  Name = ../refined-set-2016/3cdb/3cdb_pocket.pdb
REMARK  230 active torsions:
REMARK  status: ('A' for Active; 'I' for Inactive)
REMARK    1  A    between atoms: _1  and  _3
REMARK    2  A    between atoms: _3  and  _4
REMARK    3  A    between atoms: _3  and  _6
REMARK    4  A    between atoms: _6  and  _7
REMARK    5  A    between atoms: _10  and  _12
REMARK    6  A    between atoms: _12  and  _13
REMARK    7  A    between atoms: _12  and  _15
REMARK    8  A    between atoms: _15  and  _16
REMARK    9  A    between atoms: _16  and  _17
REMARK   10  A    between atoms: _20  and  _22
REMARK   11  A    between atoms: _22  and  _23
REMARK   12  A    between atoms: _25  and  _27
REMARK   13  A    between atoms: _27  and  _28
REMARK   14  A    between atoms: _27  and  _30
REMARK   15  A    between atoms: _32  and  _34
REMARK   16  A    between atoms: _34  and  _35
REMARK   17  A    between atoms: _34  and  _37
REMARK   18  A    between atoms: _37  and  _38
REMARK   19  A    between atoms: _41  and  _43
REMARK   20  A    between atoms: _43  and  _44
REMARK   21  A    between atoms: _43  and  _46
REMARK   22  A    between atoms: _49  and  _51
REMARK   23  A    between atoms: _51  and  _52
REMARK   24  A    between atoms: _55  and  _57
REMARK   25  A    between atoms: _57  and  _58
REMARK   26  A    between atoms: _57  and  _60
REMARK   27  A    between atoms: _60  and  _61
REMARK   28  A    between atoms: _63  and  _65
REMARK   29  A    between atoms: _65  and  _66
REMARK   30  A    between atoms: _65  and  _68
REMARK   31  A    between atoms: _68  and  _69
REMARK   32  A    between atoms: _72  and  _74
REMARK   33  A    between atoms: _74  and  _75
REMARK   34  A    between atoms: _74  and  _77
REMARK   35  A    between atoms: _77  and  _78
REMARK   36  A    between atoms: _78  and  _79
REMARK   37  A    between atoms: _79  and  _80
REMARK   38  A    between atoms: _89  and  _91
REMARK   39  A    between atoms: _91  and  _92
REMARK   40  A    between atoms: _91  and  _94
REMARK   41  A    between atoms: _94  and  _95
REMARK   42  A    between atoms: _95  and  _96
REMARK   43  A    between atoms: _96  and  _97
REMARK   44  A    between atoms: _97  and  _98
REMARK   45  A    between atoms: _102  and  _104
REMARK   46  A    between atoms: _104  and  _105
REMARK   47  A    between atoms: _104  and  _107
REMARK   48  A    between atoms: _107  and  _108
REMARK   49  A    between atoms: _113  and  _115
REMARK   50  A    between atoms: _115  and  _116
REMARK   51  A    between atoms: _115  and  _118
REMARK   52  A    between atoms: _118  and  _119
REMARK   53  A    between atoms: _124  and  _126
REMARK   54  A    between atoms: _126  and  _127
REMARK   55  A    between atoms: _130  and  _132
REMARK   56  A    between atoms: _132  and  _133
REMARK   57  A    between atoms: _132  and  _135
REMARK   58  A    between atoms: _135  and  _136
REMARK   59  A    between atoms: _141  and  _143
REMARK   60  A    between atoms: _143  and  _144
REMARK   61  A    between atoms: _147  and  _149
REMARK   62  A    between atoms: _149  and  _150
REMARK   63  A    between atoms: _153  and  _155
REMARK   64  A    between atoms: _155  and  _156
REMARK   65  A    between atoms: _155  and  _158
REMARK   66  A    between atoms: _158  and  _159
REMARK   67  A    between atoms: _164  and  _166
REMARK   68  A    between atoms: _166  and  _167
REMARK   69  A    between atoms: _166  and  _169
REMARK   70  A    between atoms: _169  and  _170
REMARK   71  A    between atoms: _173  and  _175
REMARK   72  A    between atoms: _175  and  _176
REMARK   73  A    between atoms: _178  and  _180
REMARK   74  A    between atoms: _180  and  _181
REMARK   75  A    between atoms: _180  and  _183
REMARK   76  A    between atoms: _183  and  _184
REMARK   77  A    between atoms: _184  and  _185
REMARK   78  A    between atoms: _188  and  _190
REMARK   79  A    between atoms: _190  and  _191
REMARK   80  A    between atoms: _190  and  _193
REMARK   81  A    between atoms: _193  and  _194
REMARK   82  A    between atoms: _196  and  _198
REMARK   83  A    between atoms: _198  and  _199
REMARK   84  A    between atoms: _198  and  _201
REMARK   85  A    between atoms: _201  and  _202
REMARK   86  A    between atoms: _205  and  _207
REMARK   87  A    between atoms: _207  and  _208
REMARK   88  A    between atoms: _207  and  _210
REMARK   89  A    between atoms: _210  and  _211
REMARK   90  A    between atoms: _211  and  _212
REMARK   91  A    between atoms: _214  and  _216
REMARK   92  A    between atoms: _216  and  _217
REMARK   93  A    between atoms: _220  and  _222
REMARK   94  A    between atoms: _222  and  _223
REMARK   95  A    between atoms: _226  and  _228
REMARK   96  A    between atoms: _228  and  _229
REMARK   97  A    between atoms: _228  and  _231
REMARK   98  A    between atoms: _231  and  _232
REMARK   99  A    between atoms: _235  and  _237
REMARK  100  A    between atoms: _237  and  _238
REMARK  101  A    between atoms: _241  and  _243
REMARK  102  A    between atoms: _243  and  _244
REMARK  103  A    between atoms: _247  and  _249
REMARK  104  A    between atoms: _249  and  _250
REMARK  105  A    between atoms: _252  and  _254
REMARK  106  A    between atoms: _254  and  _255
REMARK  107  A    between atoms: _254  and  _257
REMARK  108  A    between atoms: _257  and  _258
REMARK  109  A    between atoms: _263  and  _265
REMARK  110  A    between atoms: _265  and  _266
REMARK  111  A    between atoms: _268  and  _270
REMARK  112  A    between atoms: _270  and  _271
REMARK  113  A    between atoms: _274  and  _276
REMARK  114  A    between atoms: _276  and  _277
REMARK  115  A    between atoms: _276  and  _279
REMARK  116  A    between atoms: _279  and  _280
REMARK  117  A    between atoms: _280  and  _281
REMARK  118  A    between atoms: _284  and  _286
REMARK  119  A    between atoms: _286  and  _287
REMARK  120  A    between atoms: _286  and  _289
REMARK  121  A    between atoms: _289  and  _290
REMARK  122  A    between atoms: _293  and  _295
REMARK  123  A    between atoms: _295  and  _296
REMARK  124  A    between atoms: _295  and  _298
REMARK  125  A    between atoms: _298  and  _299
REMARK  126  A    between atoms: _299  and  _300
REMARK  127  A    between atoms: _300  and  _301
REMARK  128  A    between atoms: _310  and  _312
REMARK  129  A    between atoms: _312  and  _313
REMARK  130  A    between atoms: _316  and  _317
REMARK  131  A    between atoms: _322  and  _324
REMARK  132  A    between atoms: _324  and  _325
REMARK  133  A    between atoms: _324  and  _327
REMARK  134  A    between atoms: _327  and  _328
REMARK  135  A    between atoms: _328  and  _329
REMARK  136  A    between atoms: _331  and  _333
REMARK  137  A    between atoms: _333  and  _334
REMARK  138  A    between atoms: _333  and  _336
REMARK  139  A    between atoms: _336  and  _337
REMARK  140  A    between atoms: _337  and  _338
REMARK  141  A    between atoms: _340  and  _342
REMARK  142  A    between atoms: _342  and  _343
REMARK  143  A    between atoms: _342  and  _345
REMARK  144  A    between atoms: _345  and  _346
REMARK  145  A    between atoms: _351  and  _353
REMARK  146  A    between atoms: _353  and  _354
REMARK  147  A    between atoms: _353  and  _356
REMARK  148  A    between atoms: _356  and  _357
REMARK  149  A    between atoms: _360  and  _362
REMARK  150  A    between atoms: _362  and  _363
REMARK  151  A    between atoms: _362  and  _365
REMARK  152  A    between atoms: _365  and  _366
REMARK  153  A    between atoms: _368  and  _370
REMARK  154  A    between atoms: _370  and  _371
REMARK  155  A    between atoms: _370  and  _373
REMARK  156  A    between atoms: _373  and  _374
REMARK  157  A    between atoms: _374  and  _375
REMARK  158  A    between atoms: _375  and  _376
REMARK  159  A    between atoms: _376  and  _377
REMARK  160  A    between atoms: _381  and  _383
REMARK  161  A    between atoms: _383  and  _384
REMARK  162  A    between atoms: _383  and  _386
REMARK  163  A    between atoms: _386  and  _387
REMARK  164  A    between atoms: _390  and  _392
REMARK  165  A    between atoms: _392  and  _393
REMARK  166  A    between atoms: _392  and  _395
REMARK  167  A    between atoms: _395  and  _396
REMARK  168  A    between atoms: _396  and  _397
REMARK  169  A    between atoms: _400  and  _402
REMARK  170  A    between atoms: _402  and  _403
REMARK  171  A    between atoms: _406  and  _408
REMARK  172  A    between atoms: _408  and  _409
REMARK  173  A    between atoms: _408  and  _411
REMARK  174  A    between atoms: _414  and  _416
REMARK  175  A    between atoms: _416  and  _417
REMARK  176  A    between atoms: _416  and  _419
REMARK  177  A    between atoms: _419  and  _420
REMARK  178  A    between atoms: _422  and  _424
REMARK  179  A    between atoms: _424  and  _425
REMARK  180  A    between atoms: _427  and  _429
REMARK  181  A    between atoms: _429  and  _430
REMARK  182  A    between atoms: _429  and  _432
REMARK  183  A    between atoms: _432  and  _433
REMARK  184  A    between atoms: _438  and  _440
REMARK  185  A    between atoms: _440  and  _441
REMARK  186  A    between atoms: _440  and  _443
REMARK  187  A    between atoms: _443  and  _444
REMARK  188  A    between atoms: _449  and  _450
REMARK  189  A    between atoms: _452  and  _454
REMARK  190  A    between atoms: _454  and  _455
REMARK  191  A    between atoms: _454  and  _457
REMARK  192  A    between atoms: _459  and  _461
REMARK  193  A    between atoms: _461  and  _462
REMARK  194  A    between atoms: _461  and  _464
REMARK  195  A    between atoms: _464  and  _465
REMARK  196  A    between atoms: _468  and  _470
REMARK  197  A    between atoms: _470  and  _471
REMARK  198  A    between atoms: _470  and  _473
REMARK  199  A    between atoms: _473  and  _474
REMARK  200  A    between atoms: _477  and  _479
REMARK  201  A    between atoms: _479  and  _480
REMARK  202  A    between atoms: _479  and  _482
REMARK  203  A    between atoms: _482  and  _483
REMARK  204  A    between atoms: _483  and  _484
REMARK  205  A    between atoms: _484  and  _485
REMARK  206  A    between atoms: _485  and  _486
REMARK  207  A    between atoms: _490  and  _492
REMARK  208  A    between atoms: _492  and  _493
REMARK  209  A    between atoms: _492  and  _495
REMARK  210  A    between atoms: _495  and  _496
REMARK  211  A    between atoms: _496  and  _497
REMARK  212  A    between atoms: _497  and  _498
REMARK  213  A    between atoms: _498  and  _499
REMARK  214  A    between atoms: _503  and  _505
REMARK  215  A    between atoms: _505  and  _506
REMARK  216  A    between atoms: _505  and  _508
REMARK  217  A    between atoms: _508  and  _509
REMARK  218  A    between atoms: _509  and  _510
REMARK  219  A    between atoms: _510  and  _511
REMARK  220  A    between atoms: _520  and  _522
REMARK  221  A    between atoms: _522  and  _523
REMARK  222  A    between atoms: _522  and  _525
REMARK  223  A    between atoms: _525  and  _526
REMARK  224  A    between atoms: _529  and  _531
REMARK  225  A    between atoms: _531  and  _532
REMARK  226  A    between atoms: _535  and  _537
REMARK  227  A    between atoms: _537  and  _538
REMARK  228  A    between atoms: _537  and  _540
REMARK  229  A    between atoms: _540  and  _541
REMARK  230  A    between atoms: _541  and  _542
REMARK                            x       y       z     vdW  Elec       q    Type
REMARK                         _______ _______ _______ _____ _____    ______ ____
ROOT
ATOM      1  O   HOH     1      11.751  15.219  39.691  0.00  0.00    +0.000 OA
ENDROOT
TORSDOF 0
REMARK  Name = ../refined-set-2016/3cdb/3cdb_pocket.pdb
REMARK  230 active torsions:
REMARK  status: ('A' for Active; 'I' for Inactive)
REMARK    1  A    between atoms: _1  and  _3
REMARK    2  A    between atoms: _3  and  _4
REMARK    3  A    between atoms: _3  and  _6
REMARK    4  A    between atoms: _6  and  _7
REMARK    5  A    between atoms: _10  and  _12
REMARK    6  A    between atoms: _12  and  _13
REMARK    7  A    between atoms: _12  and  _15
REMARK    8  A    between atoms: _15  and  _16
REMARK    9  A    between atoms: _16  and  _17
REMARK   10  A    between atoms: _20  and  _22
REMARK   11  A    between atoms: _22  and  _23
REMARK   12  A    between atoms: _25  and  _27
REMARK   13  A    between atoms: _27  and  _28
REMARK   14  A    between atoms: _27  and  _30
REMARK   15  A    between atoms: _32  and  _34
REMARK   16  A    between atoms: _34  and  _35
REMARK   17  A    between atoms: _34  and  _37
REMARK   18  A    between atoms: _37  and  _38
REMARK   19  A    between atoms: _41  and  _43
REMARK   20  A    between atoms: _43  and  _44
REMARK   21  A    between atoms: _43  and  _46
REMARK   22  A    between atoms: _49  and  _51
REMARK   23  A    between atoms: _51  and  _52
REMARK   24  A    between atoms: _55  and  _57
REMARK   25  A    between atoms: _57  and  _58
REMARK   26  A    between atoms: _57  and  _60
REMARK   27  A    between atoms: _60  and  _61
REMARK   28  A    between atoms: _63  and  _65
REMARK   29  A    between atoms: _65  and  _66
REMARK   30  A    between atoms: _65  and  _68
REMARK   31  A    between atoms: _68  and  _69
REMARK   32  A    between atoms: _72  and  _74
REMARK   33  A    between atoms: _74  and  _75
REMARK   34  A    between atoms: _74  and  _77
REMARK   35  A    between atoms: _77  and  _78
REMARK   36  A    between atoms: _78  and  _79
REMARK   37  A    between atoms: _79  and  _80
REMARK   38  A    between atoms: _89  and  _91
REMARK   39  A    between atoms: _91  and  _92
REMARK   40  A    between atoms: _91  and  _94
REMARK   41  A    between atoms: _94  and  _95
REMARK   42  A    between atoms: _95  and  _96
REMARK   43  A    between atoms: _96  and  _97
REMARK   44  A    between atoms: _97  and  _98
REMARK   45  A    between atoms: _102  and  _104
REMARK   46  A    between atoms: _104  and  _105
REMARK   47  A    between atoms: _104  and  _107
REMARK   48  A    between atoms: _107  and  _108
REMARK   49  A    between atoms: _113  and  _115
REMARK   50  A    between atoms: _115  and  _116
REMARK   51  A    between atoms: _115  and  _118
REMARK   52  A    between atoms: _118  and  _119
REMARK   53  A    between atoms: _124  and  _126
REMARK   54  A    between atoms: _126  and  _127
REMARK   55  A    between atoms: _130  and  _132
REMARK   56  A    between atoms: _132  and  _133
REMARK   57  A    between atoms: _132  and  _135
REMARK   58  A    between atoms: _135  and  _136
REMARK   59  A    between atoms: _141  and  _143
REMARK   60  A    between atoms: _143  and  _144
REMARK   61  A    between atoms: _147  and  _149
REMARK   62  A    between atoms: _149  and  _150
REMARK   63  A    between atoms: _153  and  _155
REMARK   64  A    between atoms: _155  and  _156
REMARK   65  A    between atoms: _155  and  _158
REMARK   66  A    between atoms: _158  and  _159
REMARK   67  A    between atoms: _164  and  _166
REMARK   68  A    between atoms: _166  and  _167
REMARK   69  A    between atoms: _166  and  _169
REMARK   70  A    between atoms: _169  and  _170
REMARK   71  A    between atoms: _173  and  _175
REMARK   72  A    between atoms: _175  and  _176
REMARK   73  A    between atoms: _178  and  _180
REMARK   74  A    between atoms: _180  and  _181
REMARK   75  A    between atoms: _180  and  _183
REMARK   76  A    between atoms: _183  and  _184
REMARK   77  A    between atoms: _184  and  _185
REMARK   78  A    between atoms: _188  and  _190
REMARK   79  A    between atoms: _190  and  _191
REMARK   80  A    between atoms: _190  and  _193
REMARK   81  A    between atoms: _193  and  _194
REMARK   82  A    between atoms: _196  and  _198
REMARK   83  A    between atoms: _198  and  _199
REMARK   84  A    between atoms: _198  and  _201
REMARK   85  A    between atoms: _201  and  _202
REMARK   86  A    between atoms: _205  and  _207
REMARK   87  A    between atoms: _207  and  _208
REMARK   88  A    between atoms: _207  and  _210
REMARK   89  A    between atoms: _210  and  _211
REMARK   90  A    between atoms: _211  and  _212
REMARK   91  A    between atoms: _214  and  _216
REMARK   92  A    between atoms: _216  and  _217
REMARK   93  A    between atoms: _220  and  _222
REMARK   94  A    between atoms: _222  and  _223
REMARK   95  A    between atoms: _226  and  _228
REMARK   96  A    between atoms: _228  and  _229
REMARK   97  A    between atoms: _228  and  _231
REMARK   98  A    between atoms: _231  and  _232
REMARK   99  A    between atoms: _235  and  _237
REMARK  100  A    between atoms: _237  and  _238
REMARK  101  A    between atoms: _241  and  _243
REMARK  102  A    between atoms: _243  and  _244
REMARK  103  A    between atoms: _247  and  _249
REMARK  104  A    between atoms: _249  and  _250
REMARK  105  A    between atoms: _252  and  _254
REMARK  106  A    between atoms: _254  and  _255
REMARK  107  A    between atoms: _254  and  _257
REMARK  108  A    between atoms: _257  and  _258
REMARK  109  A    between atoms: _263  and  _265
REMARK  110  A    between atoms: _265  and  _266
REMARK  111  A    between atoms: _268  and  _270
REMARK  112  A    between atoms: _270  and  _271
REMARK  113  A    between atoms: _274  and  _276
REMARK  114  A    between atoms: _276  and  _277
REMARK  115  A    between atoms: _276  and  _279
REMARK  116  A    between atoms: _279  and  _280
REMARK  117  A    between atoms: _280  and  _281
REMARK  118  A    between atoms: _284  and  _286
REMARK  119  A    between atoms: _286  and  _287
REMARK  120  A    between atoms: _286  and  _289
REMARK  121  A    between atoms: _289  and  _290
REMARK  122  A    between atoms: _293  and  _295
REMARK  123  A    between atoms: _295  and  _296
REMARK  124  A    between atoms: _295  and  _298
REMARK  125  A    between atoms: _298  and  _299
REMARK  126  A    between atoms: _299  and  _300
REMARK  127  A    between atoms: _300  and  _301
REMARK  128  A    between atoms: _310  and  _312
REMARK  129  A    between atoms: _312  and  _313
REMARK  130  A    between atoms: _316  and  _317
REMARK  131  A    between atoms: _322  and  _324
REMARK  132  A    between atoms: _324  and  _325
REMARK  133  A    between atoms: _324  and  _327
REMARK  134  A    between atoms: _327  and  _328
REMARK  135  A    between atoms: _328  and  _329
REMARK  136  A    between atoms: _331  and  _333
REMARK  137  A    between atoms: _333  and  _334
REMARK  138  A    between atoms: _333  and  _336
REMARK  139  A    between atoms: _336  and  _337
REMARK  140  A    between atoms: _337  and  _338
REMARK  141  A    between atoms: _340  and  _342
REMARK  142  A    between atoms: _342  and  _343
REMARK  143  A    between atoms: _342  and  _345
REMARK  144  A    between atoms: _345  and  _346
REMARK  145  A    between atoms: _351  and  _353
REMARK  146  A    between atoms: _353  and  _354
REMARK  147  A    between atoms: _353  and  _356
REMARK  148  A    between atoms: _356  and  _357
REMARK  149  A    between atoms: _360  and  _362
REMARK  150  A    between atoms: _362  and  _363
REMARK  151  A    between atoms: _362  and  _365
REMARK  152  A    between atoms: _365  and  _366
REMARK  153  A    between atoms: _368  and  _370
REMARK  154  A    between atoms: _370  and  _371
REMARK  155  A    between atoms: _370  and  _373
REMARK  156  A    between atoms: _373  and  _374
REMARK  157  A    between atoms: _374  and  _375
REMARK  158  A    between atoms: _375  and  _376
REMARK  159  A    between atoms: _376  and  _377
REMARK  160  A    between atoms: _381  and  _383
REMARK  161  A    between atoms: _383  and  _384
REMARK  162  A    between atoms: _383  and  _386
REMARK  163  A    between atoms: _386  and  _387
REMARK  164  A    between atoms: _390  and  _392
REMARK  165  A    between atoms: _392  and  _393
REMARK  166  A    between atoms: _392  and  _395
REMARK  167  A    between atoms: _395  and  _396
REMARK  168  A    between atoms: _396  and  _397
REMARK  169  A    between atoms: _400  and  _402
REMARK  170  A    between atoms: _402  and  _403
REMARK  171  A    between atoms: _406  and  _408
REMARK  172  A    between atoms: _408  and  _409
REMARK  173  A    between atoms: _408  and  _411
REMARK  174  A    between atoms: _414  and  _416
REMARK  175  A    between atoms: _416  and  _417
REMARK  176  A    between atoms: _416  and  _419
REMARK  177  A    between atoms: _419  and  _420
REMARK  178  A    between atoms: _422  and  _424
REMARK  179  A    between atoms: _424  and  _425
REMARK  180  A    between atoms: _427  and  _429
REMARK  181  A    between atoms: _429  and  _430
REMARK  182  A    between atoms: _429  and  _432
REMARK  183  A    between atoms: _432  and  _433
REMARK  184  A    between atoms: _438  and  _440
REMARK  185  A    between atoms: _440  and  _441
REMARK  186  A    between atoms: _440  and  _443
REMARK  187  A    between atoms: _443  and  _444
REMARK  188  A    between atoms: _449  and  _450
REMARK  189  A    between atoms: _452  and  _454
REMARK  190  A    between atoms: _454  and  _455
REMARK  191  A    between atoms: _454  and  _457
REMARK  192  A    between atoms: _459  and  _461
REMARK  193  A    between atoms: _461  and  _462
REMARK  194  A    between atoms: _461  and  _464
REMARK  195  A    between atoms: _464  and  _465
REMARK  196  A    between atoms: _468  and  _470
REMARK  197  A    between atoms: _470  and  _471
REMARK  198  A    between atoms: _470  and  _473
REMARK  199  A    between atoms: _473  and  _474
REMARK  200  A    between atoms: _477  and  _479
REMARK  201  A    between atoms: _479  and  _480
REMARK  202  A    between atoms: _479  and  _482
REMARK  203  A    between atoms: _482  and  _483
REMARK  204  A    between atoms: _483  and  _484
REMARK  205  A    between atoms: _484  and  _485
REMARK  206  A    between atoms: _485  and  _486
REMARK  207  A    between atoms: _490  and  _492
REMARK  208  A    between atoms: _492  and  _493
REMARK  209  A    between atoms: _492  and  _495
REMARK  210  A    between atoms: _495  and  _496
REMARK  211  A    between atoms: _496  and  _497
REMARK  212  A    between atoms: _497  and  _498
REMARK  213  A    between atoms: _498  and  _499
REMARK  214  A    between atoms: _503  and  _505
REMARK  215  A    between atoms: _505  and  _506
REMARK  216  A    between atoms: _505  and  _508
REMARK  217  A    between atoms: _508  and  _509
REMARK  218  A    between atoms: _509  and  _510
REMARK  219  A    between atoms: _510  and  _511
REMARK  220  A    between atoms: _520  and  _522
REMARK  221  A    between atoms: _522  and  _523
REMARK  222  A    between atoms: _522  and  _525
REMARK  223  A    between atoms: _525  and  _526
REMARK  224  A    between atoms: _529  and  _531
REMARK  225  A    between atoms: _531  and  _532
REMARK  226  A    between atoms: _535  and  _537
REMARK  227  A    between atoms: _537  and  _538
REMARK  228  A    between atoms: _537  and  _540
REMARK  229  A    between atoms: _540  and  _541
REMARK  230  A    between atoms: _541  and  _542
REMARK                            x       y       z     vdW  Elec       q    Type
REMARK                         _______ _______ _______ _____ _____    ______ ____
ROOT
ATOM      1  O   HOH     1      11.849   0.749  37.131  0.00  0.00    +0.000 OA
ENDROOT
TORSDOF 0
REMARK  Name = ../refined-set-2016/3cdb/3cdb_pocket.pdb
REMARK  230 active torsions:
REMARK  status: ('A' for Active; 'I' for Inactive)
REMARK    1  A    between atoms: _1  and  _3
REMARK    2  A    between atoms: _3  and  _4
REMARK    3  A    between atoms: _3  and  _6
REMARK    4  A    between atoms: _6  and  _7
REMARK    5  A    between atoms: _10  and  _12
REMARK    6  A    between atoms: _12  and  _13
REMARK    7  A    between atoms: _12  and  _15
REMARK    8  A    between atoms: _15  and  _16
REMARK    9  A    between atoms: _16  and  _17
REMARK   10  A    between atoms: _20  and  _22
REMARK   11  A    between atoms: _22  and  _23
REMARK   12  A    between atoms: _25  and  _27
REMARK   13  A    between atoms: _27  and  _28
REMARK   14  A    between atoms: _27  and  _30
REMARK   15  A    between atoms: _32  and  _34
REMARK   16  A    between atoms: _34  and  _35
REMARK   17  A    between atoms: _34  and  _37
REMARK   18  A    between atoms: _37  and  _38
REMARK   19  A    between atoms: _41  and  _43
REMARK   20  A    between atoms: _43  and  _44
REMARK   21  A    between atoms: _43  and  _46
REMARK   22  A    between atoms: _49  and  _51
REMARK   23  A    between atoms: _51  and  _52
REMARK   24  A    between atoms: _55  and  _57
REMARK   25  A    between atoms: _57  and  _58
REMARK   26  A    between atoms: _57  and  _60
REMARK   27  A    between atoms: _60  and  _61
REMARK   28  A    between atoms: _63  and  _65
REMARK   29  A    between atoms: _65  and  _66
REMARK   30  A    between atoms: _65  and  _68
REMARK   31  A    between atoms: _68  and  _69
REMARK   32  A    between atoms: _72  and  _74
REMARK   33  A    between atoms: _74  and  _75
REMARK   34  A    between atoms: _74  and  _77
REMARK   35  A    between atoms: _77  and  _78
REMARK   36  A    between atoms: _78  and  _79
REMARK   37  A    between atoms: _79  and  _80
REMARK   38  A    between atoms: _89  and  _91
REMARK   39  A    between atoms: _91  and  _92
REMARK   40  A    between atoms: _91  and  _94
REMARK   41  A    between atoms: _94  and  _95
REMARK   42  A    between atoms: _95  and  _96
REMARK   43  A    between atoms: _96  and  _97
REMARK   44  A    between atoms: _97  and  _98
REMARK   45  A    between atoms: _102  and  _104
REMARK   46  A    between atoms: _104  and  _105
REMARK   47  A    between atoms: _104  and  _107
REMARK   48  A    between atoms: _107  and  _108
REMARK   49  A    between atoms: _113  and  _115
REMARK   50  A    between atoms: _115  and  _116
REMARK   51  A    between atoms: _115  and  _118
REMARK   52  A    between atoms: _118  and  _119
REMARK   53  A    between atoms: _124  and  _126
REMARK   54  A    between atoms: _126  and  _127
REMARK   55  A    between atoms: _130  and  _132
REMARK   56  A    between atoms: _132  and  _133
REMARK   57  A    between atoms: _132  and  _135
REMARK   58  A    between atoms: _135  and  _136
REMARK   59  A    between atoms: _141  and  _143
REMARK   60  A    between atoms: _143  and  _144
REMARK   61  A    between atoms: _147  and  _149
REMARK   62  A    between atoms: _149  and  _150
REMARK   63  A    between atoms: _153  and  _155
REMARK   64  A    between atoms: _155  and  _156
REMARK   65  A    between atoms: _155  and  _158
REMARK   66  A    between atoms: _158  and  _159
REMARK   67  A    between atoms: _164  and  _166
REMARK   68  A    between atoms: _166  and  _167
REMARK   69  A    between atoms: _166  and  _169
REMARK   70  A    between atoms: _169  and  _170
REMARK   71  A    between atoms: _173  and  _175
REMARK   72  A    between atoms: _175  and  _176
REMARK   73  A    between atoms: _178  and  _180
REMARK   74  A    between atoms: _180  and  _181
REMARK   75  A    between atoms: _180  and  _183
REMARK   76  A    between atoms: _183  and  _184
REMARK   77  A    between atoms: _184  and  _185
REMARK   78  A    between atoms: _188  and  _190
REMARK   79  A    between atoms: _190  and  _191
REMARK   80  A    between atoms: _190  and  _193
REMARK   81  A    between atoms: _193  and  _194
REMARK   82  A    between atoms: _196  and  _198
REMARK   83  A    between atoms: _198  and  _199
REMARK   84  A    between atoms: _198  and  _201
REMARK   85  A    between atoms: _201  and  _202
REMARK   86  A    between atoms: _205  and  _207
REMARK   87  A    between atoms: _207  and  _208
REMARK   88  A    between atoms: _207  and  _210
REMARK   89  A    between atoms: _210  and  _211
REMARK   90  A    between atoms: _211  and  _212
REMARK   91  A    between atoms: _214  and  _216
REMARK   92  A    between atoms: _216  and  _217
REMARK   93  A    between atoms: _220  and  _222
REMARK   94  A    between atoms: _222  and  _223
REMARK   95  A    between atoms: _226  and  _228
REMARK   96  A    between atoms: _228  and  _229
REMARK   97  A    between atoms: _228  and  _231
REMARK   98  A    between atoms: _231  and  _232
REMARK   99  A    between atoms: _235  and  _237
REMARK  100  A    between atoms: _237  and  _238
REMARK  101  A    between atoms: _241  and  _243
REMARK  102  A    between atoms: _243  and  _244
REMARK  103  A    between atoms: _247  and  _249
REMARK  104  A    between atoms: _249  and  _250
REMARK  105  A    between atoms: _252  and  _254
REMARK  106  A    between atoms: _254  and  _255
REMARK  107  A    between atoms: _254  and  _257
REMARK  108  A    between atoms: _257  and  _258
REMARK  109  A    between atoms: _263  and  _265
REMARK  110  A    between atoms: _265  and  _266
REMARK  111  A    between atoms: _268  and  _270
REMARK  112  A    between atoms: _270  and  _271
REMARK  113  A    between atoms: _274  and  _276
REMARK  114  A    between atoms: _276  and  _277
REMARK  115  A    between atoms: _276  and  _279
REMARK  116  A    between atoms: _279  and  _280
REMARK  117  A    between atoms: _280  and  _281
REMARK  118  A    between atoms: _284  and  _286
REMARK  119  A    between atoms: _286  and  _287
REMARK  120  A    between atoms: _286  and  _289
REMARK  121  A    between atoms: _289  and  _290
REMARK  122  A    between atoms: _293  and  _295
REMARK  123  A    between atoms: _295  and  _296
REMARK  124  A    between atoms: _295  and  _298
REMARK  125  A    between atoms: _298  and  _299
REMARK  126  A    between atoms: _299  and  _300
REMARK  127  A    between atoms: _300  and  _301
REMARK  128  A    between atoms: _310  and  _312
REMARK  129  A    between atoms: _312  and  _313
REMARK  130  A    between atoms: _316  and  _317
REMARK  131  A    between atoms: _322  and  _324
REMARK  132  A    between atoms: _324  and  _325
REMARK  133  A    between atoms: _324  and  _327
REMARK  134  A    between atoms: _327  and  _328
REMARK  135  A    between atoms: _328  and  _329
REMARK  136  A    between atoms: _331  and  _333
REMARK  137  A    between atoms: _333  and  _334
REMARK  138  A    between atoms: _333  and  _336
REMARK  139  A    between atoms: _336  and  _337
REMARK  140  A    between atoms: _337  and  _338
REMARK  141  A    between atoms: _340  and  _342
REMARK  142  A    between atoms: _342  and  _343
REMARK  143  A    between atoms: _342  and  _345
REMARK  144  A    between atoms: _345  and  _346
REMARK  145  A    between atoms: _351  and  _353
REMARK  146  A    between atoms: _353  and  _354
REMARK  147  A    between atoms: _353  and  _356
REMARK  148  A    between atoms: _356  and  _357
REMARK  149  A    between atoms: _360  and  _362
REMARK  150  A    between atoms: _362  and  _363
REMARK  151  A    between atoms: _362  and  _365
REMARK  152  A    between atoms: _365  and  _366
REMARK  153  A    between atoms: _368  and  _370
REMARK  154  A    between atoms: _370  and  _371
REMARK  155  A    between atoms: _370  and  _373
REMARK  156  A    between atoms: _373  and  _374
REMARK  157  A    between atoms: _374  and  _375
REMARK  158  A    between atoms: _375  and  _376
REMARK  159  A    between atoms: _376  and  _377
REMARK  160  A    between atoms: _381  and  _383
REMARK  161  A    between atoms: _383  and  _384
REMARK  162  A    between atoms: _383  and  _386
REMARK  163  A    between atoms: _386  and  _387
REMARK  164  A    between atoms: _390  and  _392
REMARK  165  A    between atoms: _392  and  _393
REMARK  166  A    between atoms: _392  and  _395
REMARK  167  A    between atoms: _395  and  _396
REMARK  168  A    between atoms: _396  and  _397
REMARK  169  A    between atoms: _400  and  _402
REMARK  170  A    between atoms: _402  and  _403
REMARK  171  A    between atoms: _406  and  _408
REMARK  172  A    between atoms: _408  and  _409
REMARK  173  A    between atoms: _408  and  _411
REMARK  174  A    between atoms: _414  and  _416
REMARK  175  A    between atoms: _416  and  _417
REMARK  176  A    between atoms: _416  and  _419
REMARK  177  A    between atoms: _419  and  _420
REMARK  178  A    between atoms: _422  and  _424
REMARK  179  A    between atoms: _424  and  _425
REMARK  180  A    between atoms: _427  and  _429
REMARK  181  A    between atoms: _429  and  _430
REMARK  182  A    between atoms: _429  and  _432
REMARK  183  A    between atoms: _432  and  _433
REMARK  184  A    between atoms: _438  and  _440
REMARK  185  A    between atoms: _440  and  _441
REMARK  186  A    between atoms: _440  and  _443
REMARK  187  A    between atoms: _443  and  _444
REMARK  188  A    between atoms: _449  and  _450
REMARK  189  A    between atoms: _452  and  _454
REMARK  190  A    between atoms: _454  and  _455
REMARK  191  A    between atoms: _454  and  _457
REMARK  192  A    between atoms: _459  and  _461
REMARK  193  A    between atoms: _461  and  _462
REMARK  194  A    between atoms: _461  and  _464
REMARK  195  A    between atoms: _464  and  _465
REMARK  196  A    between atoms: _468  and  _470
REMARK  197  A    between atoms: _470  and  _471
REMARK  198  A    between atoms: _470  and  _473
REMARK  199  A    between atoms: _473  and  _474
REMARK  200  A    between atoms: _477  and  _479
REMARK  201  A    between atoms: _479  and  _480
REMARK  202  A    between atoms: _479  and  _482
REMARK  203  A    between atoms: _482  and  _483
REMARK  204  A    between atoms: _483  and  _484
REMARK  205  A    between atoms: _484  and  _485
REMARK  206  A    between atoms: _485  and  _486
REMARK  207  A    between atoms: _490  and  _492
REMARK  208  A    between atoms: _492  and  _493
REMARK  209  A    between atoms: _492  and  _495
REMARK  210  A    between atoms: _495  and  _496
REMARK  211  A    between atoms: _496  and  _497
REMARK  212  A    between atoms: _497  and  _498
REMARK  213  A    between atoms: _498  and  _499
REMARK  214  A    between atoms: _503  and  _505
REMARK  215  A    between atoms: _505  and  _506
REMARK  216  A    between atoms: _505  and  _508
REMARK  217  A    between atoms: _508  and  _509
REMARK  218  A    between atoms: _509  and  _510
REMARK  219  A    between atoms: _510  and  _511
REMARK  220  A    between atoms: _520  and  _522
REMARK  221  A    between atoms: _522  and  _523
REMARK  222  A    between atoms: _522  and  _525
REMARK  223  A    between atoms: _525  and  _526
REMARK  224  A    between atoms: _529  and  _531
REMARK  225  A    between atoms: _531  and  _532
REMARK  226  A    between atoms: _535  and  _537
REMARK  227  A    between atoms: _537  and  _538
REMARK  228  A    between atoms: _537  and  _540
REMARK  229  A    between atoms: _540  and  _541
REMARK  230  A    between atoms: _541  and  _542
REMARK                            x       y       z     vdW  Elec       q    Type
REMARK                         _______ _______ _______ _____ _____    ______ ____
ROOT
ATOM      1  O   HOH     1      18.093  -2.724  46.443  0.00  0.00    +0.000 OA
ENDROOT
TORSDOF 0
REMARK  Name = ../refined-set-2016/3cdb/3cdb_pocket.pdb
REMARK  230 active torsions:
REMARK  status: ('A' for Active; 'I' for Inactive)
REMARK    1  A    between atoms: _1  and  _3
REMARK    2  A    between atoms: _3  and  _4
REMARK    3  A    between atoms: _3  and  _6
REMARK    4  A    between atoms: _6  and  _7
REMARK    5  A    between atoms: _10  and  _12
REMARK    6  A    between atoms: _12  and  _13
REMARK    7  A    between atoms: _12  and  _15
REMARK    8  A    between atoms: _15  and  _16
REMARK    9  A    between atoms: _16  and  _17
REMARK   10  A    between atoms: _20  and  _22
REMARK   11  A    between atoms: _22  and  _23
REMARK   12  A    between atoms: _25  and  _27
REMARK   13  A    between atoms: _27  and  _28
REMARK   14  A    between atoms: _27  and  _30
REMARK   15  A    between atoms: _32  and  _34
REMARK   16  A    between atoms: _34  and  _35
REMARK   17  A    between atoms: _34  and  _37
REMARK   18  A    between atoms: _37  and  _38
REMARK   19  A    between atoms: _41  and  _43
REMARK   20  A    between atoms: _43  and  _44
REMARK   21  A    between atoms: _43  and  _46
REMARK   22  A    between atoms: _49  and  _51
REMARK   23  A    between atoms: _51  and  _52
REMARK   24  A    between atoms: _55  and  _57
REMARK   25  A    between atoms: _57  and  _58
REMARK   26  A    between atoms: _57  and  _60
REMARK   27  A    between atoms: _60  and  _61
REMARK   28  A    between atoms: _63  and  _65
REMARK   29  A    between atoms: _65  and  _66
REMARK   30  A    between atoms: _65  and  _68
REMARK   31  A    between atoms: _68  and  _69
REMARK   32  A    between atoms: _72  and  _74
REMARK   33  A    between atoms: _74  and  _75
REMARK   34  A    between atoms: _74  and  _77
REMARK   35  A    between atoms: _77  and  _78
REMARK   36  A    between atoms: _78  and  _79
REMARK   37  A    between atoms: _79  and  _80
REMARK   38  A    between atoms: _89  and  _91
REMARK   39  A    between atoms: _91  and  _92
REMARK   40  A    between atoms: _91  and  _94
REMARK   41  A    between atoms: _94  and  _95
REMARK   42  A    between atoms: _95  and  _96
REMARK   43  A    between atoms: _96  and  _97
REMARK   44  A    between atoms: _97  and  _98
REMARK   45  A    between atoms: _102  and  _104
REMARK   46  A    between atoms: _104  and  _105
REMARK   47  A    between atoms: _104  and  _107
REMARK   48  A    between atoms: _107  and  _108
REMARK   49  A    between atoms: _113  and  _115
REMARK   50  A    between atoms: _115  and  _116
REMARK   51  A    between atoms: _115  and  _118
REMARK   52  A    between atoms: _118  and  _119
REMARK   53  A    between atoms: _124  and  _126
REMARK   54  A    between atoms: _126  and  _127
REMARK   55  A    between atoms: _130  and  _132
REMARK   56  A    between atoms: _132  and  _133
REMARK   57  A    between atoms: _132  and  _135
REMARK   58  A    between atoms: _135  and  _136
REMARK   59  A    between atoms: _141  and  _143
REMARK   60  A    between atoms: _143  and  _144
REMARK   61  A    between atoms: _147  and  _149
REMARK   62  A    between atoms: _149  and  _150
REMARK   63  A    between atoms: _153  and  _155
REMARK   64  A    between atoms: _155  and  _156
REMARK   65  A    between atoms: _155  and  _158
REMARK   66  A    between atoms: _158  and  _159
REMARK   67  A    between atoms: _164  and  _166
REMARK   68  A    between atoms: _166  and  _167
REMARK   69  A    between atoms: _166  and  _169
REMARK   70  A    between atoms: _169  and  _170
REMARK   71  A    between atoms: _173  and  _175
REMARK   72  A    between atoms: _175  and  _176
REMARK   73  A    between atoms: _178  and  _180
REMARK   74  A    between atoms: _180  and  _181
REMARK   75  A    between atoms: _180  and  _183
REMARK   76  A    between atoms: _183  and  _184
REMARK   77  A    between atoms: _184  and  _185
REMARK   78  A    between atoms: _188  and  _190
REMARK   79  A    between atoms: _190  and  _191
REMARK   80  A    between atoms: _190  and  _193
REMARK   81  A    between atoms: _193  and  _194
REMARK   82  A    between atoms: _196  and  _198
REMARK   83  A    between atoms: _198  and  _199
REMARK   84  A    between atoms: _198  and  _201
REMARK   85  A    between atoms: _201  and  _202
REMARK   86  A    between atoms: _205  and  _207
REMARK   87  A    between atoms: _207  and  _208
REMARK   88  A    between atoms: _207  and  _210
REMARK   89  A    between atoms: _210  and  _211
REMARK   90  A    between atoms: _211  and  _212
REMARK   91  A    between atoms: _214  and  _216
REMARK   92  A    between atoms: _216  and  _217
REMARK   93  A    between atoms: _220  and  _222
REMARK   94  A    between atoms: _222  and  _223
REMARK   95  A    between atoms: _226  and  _228
REMARK   96  A    between atoms: _228  and  _229
REMARK   97  A    between atoms: _228  and  _231
REMARK   98  A    between atoms: _231  and  _232
REMARK   99  A    between atoms: _235  and  _237
REMARK  100  A    between atoms: _237  and  _238
REMARK  101  A    between atoms: _241  and  _243
REMARK  102  A    between atoms: _243  and  _244
REMARK  103  A    between atoms: _247  and  _249
REMARK  104  A    between atoms: _249  and  _250
REMARK  105  A    between atoms: _252  and  _254
REMARK  106  A    between atoms: _254  and  _255
REMARK  107  A    between atoms: _254  and  _257
REMARK  108  A    between atoms: _257  and  _258
REMARK  109  A    between atoms: _263  and  _265
REMARK  110  A    between atoms: _265  and  _266
REMARK  111  A    between atoms: _268  and  _270
REMARK  112  A    between atoms: _270  and  _271
REMARK  113  A    between atoms: _274  and  _276
REMARK  114  A    between atoms: _276  and  _277
REMARK  115  A    between atoms: _276  and  _279
REMARK  116  A    between atoms: _279  and  _280
REMARK  117  A    between atoms: _280  and  _281
REMARK  118  A    between atoms: _284  and  _286
REMARK  119  A    between atoms: _286  and  _287
REMARK  120  A    between atoms: _286  and  _289
REMARK  121  A    between atoms: _289  and  _290
REMARK  122  A    between atoms: _293  and  _295
REMARK  123  A    between atoms: _295  and  _296
REMARK  124  A    between atoms: _295  and  _298
REMARK  125  A    between atoms: _298  and  _299
REMARK  126  A    between atoms: _299  and  _300
REMARK  127  A    between atoms: _300  and  _301
REMARK  128  A    between atoms: _310  and  _312
REMARK  129  A    between atoms: _312  and  _313
REMARK  130  A    between atoms: _316  and  _317
REMARK  131  A    between atoms: _322  and  _324
REMARK  132  A    between atoms: _324  and  _325
REMARK  133  A    between atoms: _324  and  _327
REMARK  134  A    between atoms: _327  and  _328
REMARK  135  A    between atoms: _328  and  _329
REMARK  136  A    between atoms: _331  and  _333
REMARK  137  A    between atoms: _333  and  _334
REMARK  138  A    between atoms: _333  and  _336
REMARK  139  A    between atoms: _336  and  _337
REMARK  140  A    between atoms: _337  and  _338
REMARK  141  A    between atoms: _340  and  _342
REMARK  142  A    between atoms: _342  and  _343
REMARK  143  A    between atoms: _342  and  _345
REMARK  144  A    between atoms: _345  and  _346
REMARK  145  A    between atoms: _351  and  _353
REMARK  146  A    between atoms: _353  and  _354
REMARK  147  A    between atoms: _353  and  _356
REMARK  148  A    between atoms: _356  and  _357
REMARK  149  A    between atoms: _360  and  _362
REMARK  150  A    between atoms: _362  and  _363
REMARK  151  A    between atoms: _362  and  _365
REMARK  152  A    between atoms: _365  and  _366
REMARK  153  A    between atoms: _368  and  _370
REMARK  154  A    between atoms: _370  and  _371
REMARK  155  A    between atoms: _370  and  _373
REMARK  156  A    between atoms: _373  and  _374
REMARK  157  A    between atoms: _374  and  _375
REMARK  158  A    between atoms: _375  and  _376
REMARK  159  A    between atoms: _376  and  _377
REMARK  160  A    between atoms: _381  and  _383
REMARK  161  A    between atoms: _383  and  _384
REMARK  162  A    between atoms: _383  and  _386
REMARK  163  A    between atoms: _386  and  _387
REMARK  164  A    between atoms: _390  and  _392
REMARK  165  A    between atoms: _392  and  _393
REMARK  166  A    between atoms: _392  and  _395
REMARK  167  A    between atoms: _395  and  _396
REMARK  168  A    between atoms: _396  and  _397
REMARK  169  A    between atoms: _400  and  _402
REMARK  170  A    between atoms: _402  and  _403
REMARK  171  A    between atoms: _406  and  _408
REMARK  172  A    between atoms: _408  and  _409
REMARK  173  A    between atoms: _408  and  _411
REMARK  174  A    between atoms: _414  and  _416
REMARK  175  A    between atoms: _416  and  _417
REMARK  176  A    between atoms: _416  and  _419
REMARK  177  A    between atoms: _419  and  _420
REMARK  178  A    between atoms: _422  and  _424
REMARK  179  A    between atoms: _424  and  _425
REMARK  180  A    between atoms: _427  and  _429
REMARK  181  A    between atoms: _429  and  _430
REMARK  182  A    between atoms: _429  and  _432
REMARK  183  A    between atoms: _432  and  _433
REMARK  184  A    between atoms: _438  and  _440
REMARK  185  A    between atoms: _440  and  _441
REMARK  186  A    between atoms: _440  and  _443
REMARK  187  A    between atoms: _443  and  _444
REMARK  188  A    between atoms: _449  and  _450
REMARK  189  A    between atoms: _452  and  _454
REMARK  190  A    between atoms: _454  and  _455
REMARK  191  A    between atoms: _454  and  _457
REMARK  192  A    between atoms: _459  and  _461
REMARK  193  A    between atoms: _461  and  _462
REMARK  194  A    between atoms: _461  and  _464
REMARK  195  A    between atoms: _464  and  _465
REMARK  196  A    between atoms: _468  and  _470
REMARK  197  A    between atoms: _470  and  _471
REMARK  198  A    between atoms: _470  and  _473
REMARK  199  A    between atoms: _473  and  _474
REMARK  200  A    between atoms: _477  and  _479
REMARK  201  A    between atoms: _479  and  _480
REMARK  202  A    between atoms: _479  and  _482
REMARK  203  A    between atoms: _482  and  _483
REMARK  204  A    between atoms: _483  and  _484
REMARK  205  A    between atoms: _484  and  _485
REMARK  206  A    between atoms: _485  and  _486
REMARK  207  A    between atoms: _490  and  _492
REMARK  208  A    between atoms: _492  and  _493
REMARK  209  A    between atoms: _492  and  _495
REMARK  210  A    between atoms: _495  and  _496
REMARK  211  A    between atoms: _496  and  _497
REMARK  212  A    between atoms: _497  and  _498
REMARK  213  A    between atoms: _498  and  _499
REMARK  214  A    between atoms: _503  and  _505
REMARK  215  A    between atoms: _505  and  _506
REMARK  216  A    between atoms: _505  and  _508
REMARK  217  A    between atoms: _508  and  _509
REMARK  218  A    between atoms: _509  and  _510
REMARK  219  A    between atoms: _510  and  _511
REMARK  220  A    between atoms: _520  and  _522
REMARK  221  A    between atoms: _522  and  _523
REMARK  222  A    between atoms: _522  and  _525
REMARK  223  A    between atoms: _525  and  _526
REMARK  224  A    between atoms: _529  and  _531
REMARK  225  A    between atoms: _531  and  _532
REMARK  226  A    between atoms: _535  and  _537
REMARK  227  A    between atoms: _537  and  _538
REMARK  228  A    between atoms: _537  and  _540
REMARK  229  A    between atoms: _540  and  _541
REMARK  230  A    between atoms: _541  and  _542
REMARK                            x       y       z     vdW  Elec       q    Type
REMARK                         _______ _______ _______ _____ _____    ______ ____
ROOT
ATOM      1  O   HOH     1      14.199  16.184  47.082  0.00  0.00    +0.000 OA
ENDROOT
TORSDOF 0
REMARK  Name = ../refined-set-2016/3cdb/3cdb_pocket.pdb
REMARK  230 active torsions:
REMARK  status: ('A' for Active; 'I' for Inactive)
REMARK    1  A    between atoms: _1  and  _3
REMARK    2  A    between atoms: _3  and  _4
REMARK    3  A    between atoms: _3  and  _6
REMARK    4  A    between atoms: _6  and  _7
REMARK    5  A    between atoms: _10  and  _12
REMARK    6  A    between atoms: _12  and  _13
REMARK    7  A    between atoms: _12  and  _15
REMARK    8  A    between atoms: _15  and  _16
REMARK    9  A    between atoms: _16  and  _17
REMARK   10  A    between atoms: _20  and  _22
REMARK   11  A    between atoms: _22  and  _23
REMARK   12  A    between atoms: _25  and  _27
REMARK   13  A    between atoms: _27  and  _28
REMARK   14  A    between atoms: _27  and  _30
REMARK   15  A    between atoms: _32  and  _34
REMARK   16  A    between atoms: _34  and  _35
REMARK   17  A    between atoms: _34  and  _37
REMARK   18  A    between atoms: _37  and  _38
REMARK   19  A    between atoms: _41  and  _43
REMARK   20  A    between atoms: _43  and  _44
REMARK   21  A    between atoms: _43  and  _46
REMARK   22  A    between atoms: _49  and  _51
REMARK   23  A    between atoms: _51  and  _52
REMARK   24  A    between atoms: _55  and  _57
REMARK   25  A    between atoms: _57  and  _58
REMARK   26  A    between atoms: _57  and  _60
REMARK   27  A    between atoms: _60  and  _61
REMARK   28  A    between atoms: _63  and  _65
REMARK   29  A    between atoms: _65  and  _66
REMARK   30  A    between atoms: _65  and  _68
REMARK   31  A    between atoms: _68  and  _69
REMARK   32  A    between atoms: _72  and  _74
REMARK   33  A    between atoms: _74  and  _75
REMARK   34  A    between atoms: _74  and  _77
REMARK   35  A    between atoms: _77  and  _78
REMARK   36  A    between atoms: _78  and  _79
REMARK   37  A    between atoms: _79  and  _80
REMARK   38  A    between atoms: _89  and  _91
REMARK   39  A    between atoms: _91  and  _92
REMARK   40  A    between atoms: _91  and  _94
REMARK   41  A    between atoms: _94  and  _95
REMARK   42  A    between atoms: _95  and  _96
REMARK   43  A    between atoms: _96  and  _97
REMARK   44  A    between atoms: _97  and  _98
REMARK   45  A    between atoms: _102  and  _104
REMARK   46  A    between atoms: _104  and  _105
REMARK   47  A    between atoms: _104  and  _107
REMARK   48  A    between atoms: _107  and  _108
REMARK   49  A    between atoms: _113  and  _115
REMARK   50  A    between atoms: _115  and  _116
REMARK   51  A    between atoms: _115  and  _118
REMARK   52  A    between atoms: _118  and  _119
REMARK   53  A    between atoms: _124  and  _126
REMARK   54  A    between atoms: _126  and  _127
REMARK   55  A    between atoms: _130  and  _132
REMARK   56  A    between atoms: _132  and  _133
REMARK   57  A    between atoms: _132  and  _135
REMARK   58  A    between atoms: _135  and  _136
REMARK   59  A    between atoms: _141  and  _143
REMARK   60  A    between atoms: _143  and  _144
REMARK   61  A    between atoms: _147  and  _149
REMARK   62  A    between atoms: _149  and  _150
REMARK   63  A    between atoms: _153  and  _155
REMARK   64  A    between atoms: _155  and  _156
REMARK   65  A    between atoms: _155  and  _158
REMARK   66  A    between atoms: _158  and  _159
REMARK   67  A    between atoms: _164  and  _166
REMARK   68  A    between atoms: _166  and  _167
REMARK   69  A    between atoms: _166  and  _169
REMARK   70  A    between atoms: _169  and  _170
REMARK   71  A    between atoms: _173  and  _175
REMARK   72  A    between atoms: _175  and  _176
REMARK   73  A    between atoms: _178  and  _180
REMARK   74  A    between atoms: _180  and  _181
REMARK   75  A    between atoms: _180  and  _183
REMARK   76  A    between atoms: _183  and  _184
REMARK   77  A    between atoms: _184  and  _185
REMARK   78  A    between atoms: _188  and  _190
REMARK   79  A    between atoms: _190  and  _191
REMARK   80  A    between atoms: _190  and  _193
REMARK   81  A    between atoms: _193  and  _194
REMARK   82  A    between atoms: _196  and  _198
REMARK   83  A    between atoms: _198  and  _199
REMARK   84  A    between atoms: _198  and  _201
REMARK   85  A    between atoms: _201  and  _202
REMARK   86  A    between atoms: _205  and  _207
REMARK   87  A    between atoms: _207  and  _208
REMARK   88  A    between atoms: _207  and  _210
REMARK   89  A    between atoms: _210  and  _211
REMARK   90  A    between atoms: _211  and  _212
REMARK   91  A    between atoms: _214  and  _216
REMARK   92  A    between atoms: _216  and  _217
REMARK   93  A    between atoms: _220  and  _222
REMARK   94  A    between atoms: _222  and  _223
REMARK   95  A    between atoms: _226  and  _228
REMARK   96  A    between atoms: _228  and  _229
REMARK   97  A    between atoms: _228  and  _231
REMARK   98  A    between atoms: _231  and  _232
REMARK   99  A    between atoms: _235  and  _237
REMARK  100  A    between atoms: _237  and  _238
REMARK  101  A    between atoms: _241  and  _243
REMARK  102  A    between atoms: _243  and  _244
REMARK  103  A    between atoms: _247  and  _249
REMARK  104  A    between atoms: _249  and  _250
REMARK  105  A    between atoms: _252  and  _254
REMARK  106  A    between atoms: _254  and  _255
REMARK  107  A    between atoms: _254  and  _257
REMARK  108  A    between atoms: _257  and  _258
REMARK  109  A    between atoms: _263  and  _265
REMARK  110  A    between atoms: _265  and  _266
REMARK  111  A    between atoms: _268  and  _270
REMARK  112  A    between atoms: _270  and  _271
REMARK  113  A    between atoms: _274  and  _276
REMARK  114  A    between atoms: _276  and  _277
REMARK  115  A    between atoms: _276  and  _279
REMARK  116  A    between atoms: _279  and  _280
REMARK  117  A    between atoms: _280  and  _281
REMARK  118  A    between atoms: _284  and  _286
REMARK  119  A    between atoms: _286  and  _287
REMARK  120  A    between atoms: _286  and  _289
REMARK  121  A    between atoms: _289  and  _290
REMARK  122  A    between atoms: _293  and  _295
REMARK  123  A    between atoms: _295  and  _296
REMARK  124  A    between atoms: _295  and  _298
REMARK  125  A    between atoms: _298  and  _299
REMARK  126  A    between atoms: _299  and  _300
REMARK  127  A    between atoms: _300  and  _301
REMARK  128  A    between atoms: _310  and  _312
REMARK  129  A    between atoms: _312  and  _313
REMARK  130  A    between atoms: _316  and  _317
REMARK  131  A    between atoms: _322  and  _324
REMARK  132  A    between atoms: _324  and  _325
REMARK  133  A    between atoms: _324  and  _327
REMARK  134  A    between atoms: _327  and  _328
REMARK  135  A    between atoms: _328  and  _329
REMARK  136  A    between atoms: _331  and  _333
REMARK  137  A    between atoms: _333  and  _334
REMARK  138  A    between atoms: _333  and  _336
REMARK  139  A    between atoms: _336  and  _337
REMARK  140  A    between atoms: _337  and  _338
REMARK  141  A    between atoms: _340  and  _342
REMARK  142  A    between atoms: _342  and  _343
REMARK  143  A    between atoms: _342  and  _345
REMARK  144  A    between atoms: _345  and  _346
REMARK  145  A    between atoms: _351  and  _353
REMARK  146  A    between atoms: _353  and  _354
REMARK  147  A    between atoms: _353  and  _356
REMARK  148  A    between atoms: _356  and  _357
REMARK  149  A    between atoms: _360  and  _362
REMARK  150  A    between atoms: _362  and  _363
REMARK  151  A    between atoms: _362  and  _365
REMARK  152  A    between atoms: _365  and  _366
REMARK  153  A    between atoms: _368  and  _370
REMARK  154  A    between atoms: _370  and  _371
REMARK  155  A    between atoms: _370  and  _373
REMARK  156  A    between atoms: _373  and  _374
REMARK  157  A    between atoms: _374  and  _375
REMARK  158  A    between atoms: _375  and  _376
REMARK  159  A    between atoms: _376  and  _377
REMARK  160  A    between atoms: _381  and  _383
REMARK  161  A    between atoms: _383  and  _384
REMARK  162  A    between atoms: _383  and  _386
REMARK  163  A    between atoms: _386  and  _387
REMARK  164  A    between atoms: _390  and  _392
REMARK  165  A    between atoms: _392  and  _393
REMARK  166  A    between atoms: _392  and  _395
REMARK  167  A    between atoms: _395  and  _396
REMARK  168  A    between atoms: _396  and  _397
REMARK  169  A    between atoms: _400  and  _402
REMARK  170  A    between atoms: _402  and  _403
REMARK  171  A    between atoms: _406  and  _408
REMARK  172  A    between atoms: _408  and  _409
REMARK  173  A    between atoms: _408  and  _411
REMARK  174  A    between atoms: _414  and  _416
REMARK  175  A    between atoms: _416  and  _417
REMARK  176  A    between atoms: _416  and  _419
REMARK  177  A    between atoms: _419  and  _420
REMARK  178  A    between atoms: _422  and  _424
REMARK  179  A    between atoms: _424  and  _425
REMARK  180  A    between atoms: _427  and  _429
REMARK  181  A    between atoms: _429  and  _430
REMARK  182  A    between atoms: _429  and  _432
REMARK  183  A    between atoms: _432  and  _433
REMARK  184  A    between atoms: _438  and  _440
REMARK  185  A    between atoms: _440  and  _441
REMARK  186  A    between atoms: _440  and  _443
REMARK  187  A    between atoms: _443  and  _444
REMARK  188  A    between atoms: _449  and  _450
REMARK  189  A    between atoms: _452  and  _454
REMARK  190  A    between atoms: _454  and  _455
REMARK  191  A    between atoms: _454  and  _457
REMARK  192  A    between atoms: _459  and  _461
REMARK  193  A    between atoms: _461  and  _462
REMARK  194  A    between atoms: _461  and  _464
REMARK  195  A    between atoms: _464  and  _465
REMARK  196  A    between atoms: _468  and  _470
REMARK  197  A    between atoms: _470  and  _471
REMARK  198  A    between atoms: _470  and  _473
REMARK  199  A    between atoms: _473  and  _474
REMARK  200  A    between atoms: _477  and  _479
REMARK  201  A    between atoms: _479  and  _480
REMARK  202  A    between atoms: _479  and  _482
REMARK  203  A    between atoms: _482  and  _483
REMARK  204  A    between atoms: _483  and  _484
REMARK  205  A    between atoms: _484  and  _485
REMARK  206  A    between atoms: _485  and  _486
REMARK  207  A    between atoms: _490  and  _492
REMARK  208  A    between atoms: _492  and  _493
REMARK  209  A    between atoms: _492  and  _495
REMARK  210  A    between atoms: _495  and  _496
REMARK  211  A    between atoms: _496  and  _497
REMARK  212  A    between atoms: _497  and  _498
REMARK  213  A    between atoms: _498  and  _499
REMARK  214  A    between atoms: _503  and  _505
REMARK  215  A    between atoms: _505  and  _506
REMARK  216  A    between atoms: _505  and  _508
REMARK  217  A    between atoms: _508  and  _509
REMARK  218  A    between atoms: _509  and  _510
REMARK  219  A    between atoms: _510  and  _511
REMARK  220  A    between atoms: _520  and  _522
REMARK  221  A    between atoms: _522  and  _523
REMARK  222  A    between atoms: _522  and  _525
REMARK  223  A    between atoms: _525  and  _526
REMARK  224  A    between atoms: _529  and  _531
REMARK  225  A    between atoms: _531  and  _532
REMARK  226  A    between atoms: _535  and  _537
REMARK  227  A    between atoms: _537  and  _538
REMARK  228  A    between atoms: _537  and  _540
REMARK  229  A    between atoms: _540  and  _541
REMARK  230  A    between atoms: _541  and  _542
REMARK                            x       y       z     vdW  Elec       q    Type
REMARK                         _______ _______ _______ _____ _____    ______ ____
ROOT
ATOM      1  O   HOH     1       8.333  15.007  42.580  0.00  0.00    +0.000 OA
ENDROOT
TORSDOF 0
REMARK  Name = ../refined-set-2016/3cdb/3cdb_pocket.pdb
REMARK  230 active torsions:
REMARK  status: ('A' for Active; 'I' for Inactive)
REMARK    1  A    between atoms: _1  and  _3
REMARK    2  A    between atoms: _3  and  _4
REMARK    3  A    between atoms: _3  and  _6
REMARK    4  A    between atoms: _6  and  _7
REMARK    5  A    between atoms: _10  and  _12
REMARK    6  A    between atoms: _12  and  _13
REMARK    7  A    between atoms: _12  and  _15
REMARK    8  A    between atoms: _15  and  _16
REMARK    9  A    between atoms: _16  and  _17
REMARK   10  A    between atoms: _20  and  _22
REMARK   11  A    between atoms: _22  and  _23
REMARK   12  A    between atoms: _25  and  _27
REMARK   13  A    between atoms: _27  and  _28
REMARK   14  A    between atoms: _27  and  _30
REMARK   15  A    between atoms: _32  and  _34
REMARK   16  A    between atoms: _34  and  _35
REMARK   17  A    between atoms: _34  and  _37
REMARK   18  A    between atoms: _37  and  _38
REMARK   19  A    between atoms: _41  and  _43
REMARK   20  A    between atoms: _43  and  _44
REMARK   21  A    between atoms: _43  and  _46
REMARK   22  A    between atoms: _49  and  _51
REMARK   23  A    between atoms: _51  and  _52
REMARK   24  A    between atoms: _55  and  _57
REMARK   25  A    between atoms: _57  and  _58
REMARK   26  A    between atoms: _57  and  _60
REMARK   27  A    between atoms: _60  and  _61
REMARK   28  A    between atoms: _63  and  _65
REMARK   29  A    between atoms: _65  and  _66
REMARK   30  A    between atoms: _65  and  _68
REMARK   31  A    between atoms: _68  and  _69
REMARK   32  A    between atoms: _72  and  _74
REMARK   33  A    between atoms: _74  and  _75
REMARK   34  A    between atoms: _74  and  _77
REMARK   35  A    between atoms: _77  and  _78
REMARK   36  A    between atoms: _78  and  _79
REMARK   37  A    between atoms: _79  and  _80
REMARK   38  A    between atoms: _89  and  _91
REMARK   39  A    between atoms: _91  and  _92
REMARK   40  A    between atoms: _91  and  _94
REMARK   41  A    between atoms: _94  and  _95
REMARK   42  A    between atoms: _95  and  _96
REMARK   43  A    between atoms: _96  and  _97
REMARK   44  A    between atoms: _97  and  _98
REMARK   45  A    between atoms: _102  and  _104
REMARK   46  A    between atoms: _104  and  _105
REMARK   47  A    between atoms: _104  and  _107
REMARK   48  A    between atoms: _107  and  _108
REMARK   49  A    between atoms: _113  and  _115
REMARK   50  A    between atoms: _115  and  _116
REMARK   51  A    between atoms: _115  and  _118
REMARK   52  A    between atoms: _118  and  _119
REMARK   53  A    between atoms: _124  and  _126
REMARK   54  A    between atoms: _126  and  _127
REMARK   55  A    between atoms: _130  and  _132
REMARK   56  A    between atoms: _132  and  _133
REMARK   57  A    between atoms: _132  and  _135
REMARK   58  A    between atoms: _135  and  _136
REMARK   59  A    between atoms: _141  and  _143
REMARK   60  A    between atoms: _143  and  _144
REMARK   61  A    between atoms: _147  and  _149
REMARK   62  A    between atoms: _149  and  _150
REMARK   63  A    between atoms: _153  and  _155
REMARK   64  A    between atoms: _155  and  _156
REMARK   65  A    between atoms: _155  and  _158
REMARK   66  A    between atoms: _158  and  _159
REMARK   67  A    between atoms: _164  and  _166
REMARK   68  A    between atoms: _166  and  _167
REMARK   69  A    between atoms: _166  and  _169
REMARK   70  A    between atoms: _169  and  _170
REMARK   71  A    between atoms: _173  and  _175
REMARK   72  A    between atoms: _175  and  _176
REMARK   73  A    between atoms: _178  and  _180
REMARK   74  A    between atoms: _180  and  _181
REMARK   75  A    between atoms: _180  and  _183
REMARK   76  A    between atoms: _183  and  _184
REMARK   77  A    between atoms: _184  and  _185
REMARK   78  A    between atoms: _188  and  _190
REMARK   79  A    between atoms: _190  and  _191
REMARK   80  A    between atoms: _190  and  _193
REMARK   81  A    between atoms: _193  and  _194
REMARK   82  A    between atoms: _196  and  _198
REMARK   83  A    between atoms: _198  and  _199
REMARK   84  A    between atoms: _198  and  _201
REMARK   85  A    between atoms: _201  and  _202
REMARK   86  A    between atoms: _205  and  _207
REMARK   87  A    between atoms: _207  and  _208
REMARK   88  A    between atoms: _207  and  _210
REMARK   89  A    between atoms: _210  and  _211
REMARK   90  A    between atoms: _211  and  _212
REMARK   91  A    between atoms: _214  and  _216
REMARK   92  A    between atoms: _216  and  _217
REMARK   93  A    between atoms: _220  and  _222
REMARK   94  A    between atoms: _222  and  _223
REMARK   95  A    between atoms: _226  and  _228
REMARK   96  A    between atoms: _228  and  _229
REMARK   97  A    between atoms: _228  and  _231
REMARK   98  A    between atoms: _231  and  _232
REMARK   99  A    between atoms: _235  and  _237
REMARK  100  A    between atoms: _237  and  _238
REMARK  101  A    between atoms: _241  and  _243
REMARK  102  A    between atoms: _243  and  _244
REMARK  103  A    between atoms: _247  and  _249
REMARK  104  A    between atoms: _249  and  _250
REMARK  105  A    between atoms: _252  and  _254
REMARK  106  A    between atoms: _254  and  _255
REMARK  107  A    between atoms: _254  and  _257
REMARK  108  A    between atoms: _257  and  _258
REMARK  109  A    between atoms: _263  and  _265
REMARK  110  A    between atoms: _265  and  _266
REMARK  111  A    between atoms: _268  and  _270
REMARK  112  A    between atoms: _270  and  _271
REMARK  113  A    between atoms: _274  and  _276
REMARK  114  A    between atoms: _276  and  _277
REMARK  115  A    between atoms: _276  and  _279
REMARK  116  A    between atoms: _279  and  _280
REMARK  117  A    between atoms: _280  and  _281
REMARK  118  A    between atoms: _284  and  _286
REMARK  119  A    between atoms: _286  and  _287
REMARK  120  A    between atoms: _286  and  _289
REMARK  121  A    between atoms: _289  and  _290
REMARK  122  A    between atoms: _293  and  _295
REMARK  123  A    between atoms: _295  and  _296
REMARK  124  A    between atoms: _295  and  _298
REMARK  125  A    between atoms: _298  and  _299
REMARK  126  A    between atoms: _299  and  _300
REMARK  127  A    between atoms: _300  and  _301
REMARK  128  A    between atoms: _310  and  _312
REMARK  129  A    between atoms: _312  and  _313
REMARK  130  A    between atoms: _316  and  _317
REMARK  131  A    between atoms: _322  and  _324
REMARK  132  A    between atoms: _324  and  _325
REMARK  133  A    between atoms: _324  and  _327
REMARK  134  A    between atoms: _327  and  _328
REMARK  135  A    between atoms: _328  and  _329
REMARK  136  A    between atoms: _331  and  _333
REMARK  137  A    between atoms: _333  and  _334
REMARK  138  A    between atoms: _333  and  _336
REMARK  139  A    between atoms: _336  and  _337
REMARK  140  A    between atoms: _337  and  _338
REMARK  141  A    between atoms: _340  and  _342
REMARK  142  A    between atoms: _342  and  _343
REMARK  143  A    between atoms: _342  and  _345
REMARK  144  A    between atoms: _345  and  _346
REMARK  145  A    between atoms: _351  and  _353
REMARK  146  A    between atoms: _353  and  _354
REMARK  147  A    between atoms: _353  and  _356
REMARK  148  A    between atoms: _356  and  _357
REMARK  149  A    between atoms: _360  and  _362
REMARK  150  A    between atoms: _362  and  _363
REMARK  151  A    between atoms: _362  and  _365
REMARK  152  A    between atoms: _365  and  _366
REMARK  153  A    between atoms: _368  and  _370
REMARK  154  A    between atoms: _370  and  _371
REMARK  155  A    between atoms: _370  and  _373
REMARK  156  A    between atoms: _373  and  _374
REMARK  157  A    between atoms: _374  and  _375
REMARK  158  A    between atoms: _375  and  _376
REMARK  159  A    between atoms: _376  and  _377
REMARK  160  A    between atoms: _381  and  _383
REMARK  161  A    between atoms: _383  and  _384
REMARK  162  A    between atoms: _383  and  _386
REMARK  163  A    between atoms: _386  and  _387
REMARK  164  A    between atoms: _390  and  _392
REMARK  165  A    between atoms: _392  and  _393
REMARK  166  A    between atoms: _392  and  _395
REMARK  167  A    between atoms: _395  and  _396
REMARK  168  A    between atoms: _396  and  _397
REMARK  169  A    between atoms: _400  and  _402
REMARK  170  A    between atoms: _402  and  _403
REMARK  171  A    between atoms: _406  and  _408
REMARK  172  A    between atoms: _408  and  _409
REMARK  173  A    between atoms: _408  and  _411
REMARK  174  A    between atoms: _414  and  _416
REMARK  175  A    between atoms: _416  and  _417
REMARK  176  A    between atoms: _416  and  _419
REMARK  177  A    between atoms: _419  and  _420
REMARK  178  A    between atoms: _422  and  _424
REMARK  179  A    between atoms: _424  and  _425
REMARK  180  A    between atoms: _427  and  _429
REMARK  181  A    between atoms: _429  and  _430
REMARK  182  A    between atoms: _429  and  _432
REMARK  183  A    between atoms: _432  and  _433
REMARK  184  A    between atoms: _438  and  _440
REMARK  185  A    between atoms: _440  and  _441
REMARK  186  A    between atoms: _440  and  _443
REMARK  187  A    between atoms: _443  and  _444
REMARK  188  A    between atoms: _449  and  _450
REMARK  189  A    between atoms: _452  and  _454
REMARK  190  A    between atoms: _454  and  _455
REMARK  191  A    between atoms: _454  and  _457
REMARK  192  A    between atoms: _459  and  _461
REMARK  193  A    between atoms: _461  and  _462
REMARK  194  A    between atoms: _461  and  _464
REMARK  195  A    between atoms: _464  and  _465
REMARK  196  A    between atoms: _468  and  _470
REMARK  197  A    between atoms: _470  and  _471
REMARK  198  A    between atoms: _470  and  _473
REMARK  199  A    between atoms: _473  and  _474
REMARK  200  A    between atoms: _477  and  _479
REMARK  201  A    between atoms: _479  and  _480
REMARK  202  A    between atoms: _479  and  _482
REMARK  203  A    between atoms: _482  and  _483
REMARK  204  A    between atoms: _483  and  _484
REMARK  205  A    between atoms: _484  and  _485
REMARK  206  A    between atoms: _485  and  _486
REMARK  207  A    between atoms: _490  and  _492
REMARK  208  A    between atoms: _492  and  _493
REMARK  209  A    between atoms: _492  and  _495
REMARK  210  A    between atoms: _495  and  _496
REMARK  211  A    between atoms: _496  and  _497
REMARK  212  A    between atoms: _497  and  _498
REMARK  213  A    between atoms: _498  and  _499
REMARK  214  A    between atoms: _503  and  _505
REMARK  215  A    between atoms: _505  and  _506
REMARK  216  A    between atoms: _505  and  _508
REMARK  217  A    between atoms: _508  and  _509
REMARK  218  A    between atoms: _509  and  _510
REMARK  219  A    between atoms: _510  and  _511
REMARK  220  A    between atoms: _520  and  _522
REMARK  221  A    between atoms: _522  and  _523
REMARK  222  A    between atoms: _522  and  _525
REMARK  223  A    between atoms: _525  and  _526
REMARK  224  A    between atoms: _529  and  _531
REMARK  225  A    between atoms: _531  and  _532
REMARK  226  A    between atoms: _535  and  _537
REMARK  227  A    between atoms: _537  and  _538
REMARK  228  A    between atoms: _537  and  _540
REMARK  229  A    between atoms: _540  and  _541
REMARK  230  A    between atoms: _541  and  _542
REMARK                            x       y       z     vdW  Elec       q    Type
REMARK                         _______ _______ _______ _____ _____    ______ ____
ROOT
ATOM      1  O   HOH     1      24.340   3.611  49.335  0.00  0.00    +0.000 OA
ENDROOT
TORSDOF 0
REMARK  Name = ../refined-set-2016/3cdb/3cdb_pocket.pdb
REMARK  230 active torsions:
REMARK  status: ('A' for Active; 'I' for Inactive)
REMARK    1  A    between atoms: _1  and  _3
REMARK    2  A    between atoms: _3  and  _4
REMARK    3  A    between atoms: _3  and  _6
REMARK    4  A    between atoms: _6  and  _7
REMARK    5  A    between atoms: _10  and  _12
REMARK    6  A    between atoms: _12  and  _13
REMARK    7  A    between atoms: _12  and  _15
REMARK    8  A    between atoms: _15  and  _16
REMARK    9  A    between atoms: _16  and  _17
REMARK   10  A    between atoms: _20  and  _22
REMARK   11  A    between atoms: _22  and  _23
REMARK   12  A    between atoms: _25  and  _27
REMARK   13  A    between atoms: _27  and  _28
REMARK   14  A    between atoms: _27  and  _30
REMARK   15  A    between atoms: _32  and  _34
REMARK   16  A    between atoms: _34  and  _35
REMARK   17  A    between atoms: _34  and  _37
REMARK   18  A    between atoms: _37  and  _38
REMARK   19  A    between atoms: _41  and  _43
REMARK   20  A    between atoms: _43  and  _44
REMARK   21  A    between atoms: _43  and  _46
REMARK   22  A    between atoms: _49  and  _51
REMARK   23  A    between atoms: _51  and  _52
REMARK   24  A    between atoms: _55  and  _57
REMARK   25  A    between atoms: _57  and  _58
REMARK   26  A    between atoms: _57  and  _60
REMARK   27  A    between atoms: _60  and  _61
REMARK   28  A    between atoms: _63  and  _65
REMARK   29  A    between atoms: _65  and  _66
REMARK   30  A    between atoms: _65  and  _68
REMARK   31  A    between atoms: _68  and  _69
REMARK   32  A    between atoms: _72  and  _74
REMARK   33  A    between atoms: _74  and  _75
REMARK   34  A    between atoms: _74  and  _77
REMARK   35  A    between atoms: _77  and  _78
REMARK   36  A    between atoms: _78  and  _79
REMARK   37  A    between atoms: _79  and  _80
REMARK   38  A    between atoms: _89  and  _91
REMARK   39  A    between atoms: _91  and  _92
REMARK   40  A    between atoms: _91  and  _94
REMARK   41  A    between atoms: _94  and  _95
REMARK   42  A    between atoms: _95  and  _96
REMARK   43  A    between atoms: _96  and  _97
REMARK   44  A    between atoms: _97  and  _98
REMARK   45  A    between atoms: _102  and  _104
REMARK   46  A    between atoms: _104  and  _105
REMARK   47  A    between atoms: _104  and  _107
REMARK   48  A    between atoms: _107  and  _108
REMARK   49  A    between atoms: _113  and  _115
REMARK   50  A    between atoms: _115  and  _116
REMARK   51  A    between atoms: _115  and  _118
REMARK   52  A    between atoms: _118  and  _119
REMARK   53  A    between atoms: _124  and  _126
REMARK   54  A    between atoms: _126  and  _127
REMARK   55  A    between atoms: _130  and  _132
REMARK   56  A    between atoms: _132  and  _133
REMARK   57  A    between atoms: _132  and  _135
REMARK   58  A    between atoms: _135  and  _136
REMARK   59  A    between atoms: _141  and  _143
REMARK   60  A    between atoms: _143  and  _144
REMARK   61  A    between atoms: _147  and  _149
REMARK   62  A    between atoms: _149  and  _150
REMARK   63  A    between atoms: _153  and  _155
REMARK   64  A    between atoms: _155  and  _156
REMARK   65  A    between atoms: _155  and  _158
REMARK   66  A    between atoms: _158  and  _159
REMARK   67  A    between atoms: _164  and  _166
REMARK   68  A    between atoms: _166  and  _167
REMARK   69  A    between atoms: _166  and  _169
REMARK   70  A    between atoms: _169  and  _170
REMARK   71  A    between atoms: _173  and  _175
REMARK   72  A    between atoms: _175  and  _176
REMARK   73  A    between atoms: _178  and  _180
REMARK   74  A    between atoms: _180  and  _181
REMARK   75  A    between atoms: _180  and  _183
REMARK   76  A    between atoms: _183  and  _184
REMARK   77  A    between atoms: _184  and  _185
REMARK   78  A    between atoms: _188  and  _190
REMARK   79  A    between atoms: _190  and  _191
REMARK   80  A    between atoms: _190  and  _193
REMARK   81  A    between atoms: _193  and  _194
REMARK   82  A    between atoms: _196  and  _198
REMARK   83  A    between atoms: _198  and  _199
REMARK   84  A    between atoms: _198  and  _201
REMARK   85  A    between atoms: _201  and  _202
REMARK   86  A    between atoms: _205  and  _207
REMARK   87  A    between atoms: _207  and  _208
REMARK   88  A    between atoms: _207  and  _210
REMARK   89  A    between atoms: _210  and  _211
REMARK   90  A    between atoms: _211  and  _212
REMARK   91  A    between atoms: _214  and  _216
REMARK   92  A    between atoms: _216  and  _217
REMARK   93  A    between atoms: _220  and  _222
REMARK   94  A    between atoms: _222  and  _223
REMARK   95  A    between atoms: _226  and  _228
REMARK   96  A    between atoms: _228  and  _229
REMARK   97  A    between atoms: _228  and  _231
REMARK   98  A    between atoms: _231  and  _232
REMARK   99  A    between atoms: _235  and  _237
REMARK  100  A    between atoms: _237  and  _238
REMARK  101  A    between atoms: _241  and  _243
REMARK  102  A    between atoms: _243  and  _244
REMARK  103  A    between atoms: _247  and  _249
REMARK  104  A    between atoms: _249  and  _250
REMARK  105  A    between atoms: _252  and  _254
REMARK  106  A    between atoms: _254  and  _255
REMARK  107  A    between atoms: _254  and  _257
REMARK  108  A    between atoms: _257  and  _258
REMARK  109  A    between atoms: _263  and  _265
REMARK  110  A    between atoms: _265  and  _266
REMARK  111  A    between atoms: _268  and  _270
REMARK  112  A    between atoms: _270  and  _271
REMARK  113  A    between atoms: _274  and  _276
REMARK  114  A    between atoms: _276  and  _277
REMARK  115  A    between atoms: _276  and  _279
REMARK  116  A    between atoms: _279  and  _280
REMARK  117  A    between atoms: _280  and  _281
REMARK  118  A    between atoms: _284  and  _286
REMARK  119  A    between atoms: _286  and  _287
REMARK  120  A    between atoms: _286  and  _289
REMARK  121  A    between atoms: _289  and  _290
REMARK  122  A    between atoms: _293  and  _295
REMARK  123  A    between atoms: _295  and  _296
REMARK  124  A    between atoms: _295  and  _298
REMARK  125  A    between atoms: _298  and  _299
REMARK  126  A    between atoms: _299  and  _300
REMARK  127  A    between atoms: _300  and  _301
REMARK  128  A    between atoms: _310  and  _312
REMARK  129  A    between atoms: _312  and  _313
REMARK  130  A    between atoms: _316  and  _317
REMARK  131  A    between atoms: _322  and  _324
REMARK  132  A    between atoms: _324  and  _325
REMARK  133  A    between atoms: _324  and  _327
REMARK  134  A    between atoms: _327  and  _328
REMARK  135  A    between atoms: _328  and  _329
REMARK  136  A    between atoms: _331  and  _333
REMARK  137  A    between atoms: _333  and  _334
REMARK  138  A    between atoms: _333  and  _336
REMARK  139  A    between atoms: _336  and  _337
REMARK  140  A    between atoms: _337  and  _338
REMARK  141  A    between atoms: _340  and  _342
REMARK  142  A    between atoms: _342  and  _343
REMARK  143  A    between atoms: _342  and  _345
REMARK  144  A    between atoms: _345  and  _346
REMARK  145  A    between atoms: _351  and  _353
REMARK  146  A    between atoms: _353  and  _354
REMARK  147  A    between atoms: _353  and  _356
REMARK  148  A    between atoms: _356  and  _357
REMARK  149  A    between atoms: _360  and  _362
REMARK  150  A    between atoms: _362  and  _363
REMARK  151  A    between atoms: _362  and  _365
REMARK  152  A    between atoms: _365  and  _366
REMARK  153  A    between atoms: _368  and  _370
REMARK  154  A    between atoms: _370  and  _371
REMARK  155  A    between atoms: _370  and  _373
REMARK  156  A    between atoms: _373  and  _374
REMARK  157  A    between atoms: _374  and  _375
REMARK  158  A    between atoms: _375  and  _376
REMARK  159  A    between atoms: _376  and  _377
REMARK  160  A    between atoms: _381  and  _383
REMARK  161  A    between atoms: _383  and  _384
REMARK  162  A    between atoms: _383  and  _386
REMARK  163  A    between atoms: _386  and  _387
REMARK  164  A    between atoms: _390  and  _392
REMARK  165  A    between atoms: _392  and  _393
REMARK  166  A    between atoms: _392  and  _395
REMARK  167  A    between atoms: _395  and  _396
REMARK  168  A    between atoms: _396  and  _397
REMARK  169  A    between atoms: _400  and  _402
REMARK  170  A    between atoms: _402  and  _403
REMARK  171  A    between atoms: _406  and  _408
REMARK  172  A    between atoms: _408  and  _409
REMARK  173  A    between atoms: _408  and  _411
REMARK  174  A    between atoms: _414  and  _416
REMARK  175  A    between atoms: _416  and  _417
REMARK  176  A    between atoms: _416  and  _419
REMARK  177  A    between atoms: _419  and  _420
REMARK  178  A    between atoms: _422  and  _424
REMARK  179  A    between atoms: _424  and  _425
REMARK  180  A    between atoms: _427  and  _429
REMARK  181  A    between atoms: _429  and  _430
REMARK  182  A    between atoms: _429  and  _432
REMARK  183  A    between atoms: _432  and  _433
REMARK  184  A    between atoms: _438  and  _440
REMARK  185  A    between atoms: _440  and  _441
REMARK  186  A    between atoms: _440  and  _443
REMARK  187  A    between atoms: _443  and  _444
REMARK  188  A    between atoms: _449  and  _450
REMARK  189  A    between atoms: _452  and  _454
REMARK  190  A    between atoms: _454  and  _455
REMARK  191  A    between atoms: _454  and  _457
REMARK  192  A    between atoms: _459  and  _461
REMARK  193  A    between atoms: _461  and  _462
REMARK  194  A    between atoms: _461  and  _464
REMARK  195  A    between atoms: _464  and  _465
REMARK  196  A    between atoms: _468  and  _470
REMARK  197  A    between atoms: _470  and  _471
REMARK  198  A    between atoms: _470  and  _473
REMARK  199  A    between atoms: _473  and  _474
REMARK  200  A    between atoms: _477  and  _479
REMARK  201  A    between atoms: _479  and  _480
REMARK  202  A    between atoms: _479  and  _482
REMARK  203  A    between atoms: _482  and  _483
REMARK  204  A    between atoms: _483  and  _484
REMARK  205  A    between atoms: _484  and  _485
REMARK  206  A    between atoms: _485  and  _486
REMARK  207  A    between atoms: _490  and  _492
REMARK  208  A    between atoms: _492  and  _493
REMARK  209  A    between atoms: _492  and  _495
REMARK  210  A    between atoms: _495  and  _496
REMARK  211  A    between atoms: _496  and  _497
REMARK  212  A    between atoms: _497  and  _498
REMARK  213  A    between atoms: _498  and  _499
REMARK  214  A    between atoms: _503  and  _505
REMARK  215  A    between atoms: _505  and  _506
REMARK  216  A    between atoms: _505  and  _508
REMARK  217  A    between atoms: _508  and  _509
REMARK  218  A    between atoms: _509  and  _510
REMARK  219  A    between atoms: _510  and  _511
REMARK  220  A    between atoms: _520  and  _522
REMARK  221  A    between atoms: _522  and  _523
REMARK  222  A    between atoms: _522  and  _525
REMARK  223  A    between atoms: _525  and  _526
REMARK  224  A    between atoms: _529  and  _531
REMARK  225  A    between atoms: _531  and  _532
REMARK  226  A    between atoms: _535  and  _537
REMARK  227  A    between atoms: _537  and  _538
REMARK  228  A    between atoms: _537  and  _540
REMARK  229  A    between atoms: _540  and  _541
REMARK  230  A    between atoms: _541  and  _542
REMARK                            x       y       z     vdW  Elec       q    Type
REMARK                         _______ _______ _______ _____ _____    ______ ____
ROOT
ATOM      1  O   HOH     1       7.708  13.465  48.639  0.00  0.00    +0.000 OA
ENDROOT
TORSDOF 0
REMARK  Name = ../refined-set-2016/3cdb/3cdb_pocket.pdb
REMARK  230 active torsions:
REMARK  status: ('A' for Active; 'I' for Inactive)
REMARK    1  A    between atoms: _1  and  _3
REMARK    2  A    between atoms: _3  and  _4
REMARK    3  A    between atoms: _3  and  _6
REMARK    4  A    between atoms: _6  and  _7
REMARK    5  A    between atoms: _10  and  _12
REMARK    6  A    between atoms: _12  and  _13
REMARK    7  A    between atoms: _12  and  _15
REMARK    8  A    between atoms: _15  and  _16
REMARK    9  A    between atoms: _16  and  _17
REMARK   10  A    between atoms: _20  and  _22
REMARK   11  A    between atoms: _22  and  _23
REMARK   12  A    between atoms: _25  and  _27
REMARK   13  A    between atoms: _27  and  _28
REMARK   14  A    between atoms: _27  and  _30
REMARK   15  A    between atoms: _32  and  _34
REMARK   16  A    between atoms: _34  and  _35
REMARK   17  A    between atoms: _34  and  _37
REMARK   18  A    between atoms: _37  and  _38
REMARK   19  A    between atoms: _41  and  _43
REMARK   20  A    between atoms: _43  and  _44
REMARK   21  A    between atoms: _43  and  _46
REMARK   22  A    between atoms: _49  and  _51
REMARK   23  A    between atoms: _51  and  _52
REMARK   24  A    between atoms: _55  and  _57
REMARK   25  A    between atoms: _57  and  _58
REMARK   26  A    between atoms: _57  and  _60
REMARK   27  A    between atoms: _60  and  _61
REMARK   28  A    between atoms: _63  and  _65
REMARK   29  A    between atoms: _65  and  _66
REMARK   30  A    between atoms: _65  and  _68
REMARK   31  A    between atoms: _68  and  _69
REMARK   32  A    between atoms: _72  and  _74
REMARK   33  A    between atoms: _74  and  _75
REMARK   34  A    between atoms: _74  and  _77
REMARK   35  A    between atoms: _77  and  _78
REMARK   36  A    between atoms: _78  and  _79
REMARK   37  A    between atoms: _79  and  _80
REMARK   38  A    between atoms: _89  and  _91
REMARK   39  A    between atoms: _91  and  _92
REMARK   40  A    between atoms: _91  and  _94
REMARK   41  A    between atoms: _94  and  _95
REMARK   42  A    between atoms: _95  and  _96
REMARK   43  A    between atoms: _96  and  _97
REMARK   44  A    between atoms: _97  and  _98
REMARK   45  A    between atoms: _102  and  _104
REMARK   46  A    between atoms: _104  and  _105
REMARK   47  A    between atoms: _104  and  _107
REMARK   48  A    between atoms: _107  and  _108
REMARK   49  A    between atoms: _113  and  _115
REMARK   50  A    between atoms: _115  and  _116
REMARK   51  A    between atoms: _115  and  _118
REMARK   52  A    between atoms: _118  and  _119
REMARK   53  A    between atoms: _124  and  _126
REMARK   54  A    between atoms: _126  and  _127
REMARK   55  A    between atoms: _130  and  _132
REMARK   56  A    between atoms: _132  and  _133
REMARK   57  A    between atoms: _132  and  _135
REMARK   58  A    between atoms: _135  and  _136
REMARK   59  A    between atoms: _141  and  _143
REMARK   60  A    between atoms: _143  and  _144
REMARK   61  A    between atoms: _147  and  _149
REMARK   62  A    between atoms: _149  and  _150
REMARK   63  A    between atoms: _153  and  _155
REMARK   64  A    between atoms: _155  and  _156
REMARK   65  A    between atoms: _155  and  _158
REMARK   66  A    between atoms: _158  and  _159
REMARK   67  A    between atoms: _164  and  _166
REMARK   68  A    between atoms: _166  and  _167
REMARK   69  A    between atoms: _166  and  _169
REMARK   70  A    between atoms: _169  and  _170
REMARK   71  A    between atoms: _173  and  _175
REMARK   72  A    between atoms: _175  and  _176
REMARK   73  A    between atoms: _178  and  _180
REMARK   74  A    between atoms: _180  and  _181
REMARK   75  A    between atoms: _180  and  _183
REMARK   76  A    between atoms: _183  and  _184
REMARK   77  A    between atoms: _184  and  _185
REMARK   78  A    between atoms: _188  and  _190
REMARK   79  A    between atoms: _190  and  _191
REMARK   80  A    between atoms: _190  and  _193
REMARK   81  A    between atoms: _193  and  _194
REMARK   82  A    between atoms: _196  and  _198
REMARK   83  A    between atoms: _198  and  _199
REMARK   84  A    between atoms: _198  and  _201
REMARK   85  A    between atoms: _201  and  _202
REMARK   86  A    between atoms: _205  and  _207
REMARK   87  A    between atoms: _207  and  _208
REMARK   88  A    between atoms: _207  and  _210
REMARK   89  A    between atoms: _210  and  _211
REMARK   90  A    between atoms: _211  and  _212
REMARK   91  A    between atoms: _214  and  _216
REMARK   92  A    between atoms: _216  and  _217
REMARK   93  A    between atoms: _220  and  _222
REMARK   94  A    between atoms: _222  and  _223
REMARK   95  A    between atoms: _226  and  _228
REMARK   96  A    between atoms: _228  and  _229
REMARK   97  A    between atoms: _228  and  _231
REMARK   98  A    between atoms: _231  and  _232
REMARK   99  A    between atoms: _235  and  _237
REMARK  100  A    between atoms: _237  and  _238
REMARK  101  A    between atoms: _241  and  _243
REMARK  102  A    between atoms: _243  and  _244
REMARK  103  A    between atoms: _247  and  _249
REMARK  104  A    between atoms: _249  and  _250
REMARK  105  A    between atoms: _252  and  _254
REMARK  106  A    between atoms: _254  and  _255
REMARK  107  A    between atoms: _254  and  _257
REMARK  108  A    between atoms: _257  and  _258
REMARK  109  A    between atoms: _263  and  _265
REMARK  110  A    between atoms: _265  and  _266
REMARK  111  A    between atoms: _268  and  _270
REMARK  112  A    between atoms: _270  and  _271
REMARK  113  A    between atoms: _274  and  _276
REMARK  114  A    between atoms: _276  and  _277
REMARK  115  A    between atoms: _276  and  _279
REMARK  116  A    between atoms: _279  and  _280
REMARK  117  A    between atoms: _280  and  _281
REMARK  118  A    between atoms: _284  and  _286
REMARK  119  A    between atoms: _286  and  _287
REMARK  120  A    between atoms: _286  and  _289
REMARK  121  A    between atoms: _289  and  _290
REMARK  122  A    between atoms: _293  and  _295
REMARK  123  A    between atoms: _295  and  _296
REMARK  124  A    between atoms: _295  and  _298
REMARK  125  A    between atoms: _298  and  _299
REMARK  126  A    between atoms: _299  and  _300
REMARK  127  A    between atoms: _300  and  _301
REMARK  128  A    between atoms: _310  and  _312
REMARK  129  A    between atoms: _312  and  _313
REMARK  130  A    between atoms: _316  and  _317
REMARK  131  A    between atoms: _322  and  _324
REMARK  132  A    between atoms: _324  and  _325
REMARK  133  A    between atoms: _324  and  _327
REMARK  134  A    between atoms: _327  and  _328
REMARK  135  A    between atoms: _328  and  _329
REMARK  136  A    between atoms: _331  and  _333
REMARK  137  A    between atoms: _333  and  _334
REMARK  138  A    between atoms: _333  and  _336
REMARK  139  A    between atoms: _336  and  _337
REMARK  140  A    between atoms: _337  and  _338
REMARK  141  A    between atoms: _340  and  _342
REMARK  142  A    between atoms: _342  and  _343
REMARK  143  A    between atoms: _342  and  _345
REMARK  144  A    between atoms: _345  and  _346
REMARK  145  A    between atoms: _351  and  _353
REMARK  146  A    between atoms: _353  and  _354
REMARK  147  A    between atoms: _353  and  _356
REMARK  148  A    between atoms: _356  and  _357
REMARK  149  A    between atoms: _360  and  _362
REMARK  150  A    between atoms: _362  and  _363
REMARK  151  A    between atoms: _362  and  _365
REMARK  152  A    between atoms: _365  and  _366
REMARK  153  A    between atoms: _368  and  _370
REMARK  154  A    between atoms: _370  and  _371
REMARK  155  A    between atoms: _370  and  _373
REMARK  156  A    between atoms: _373  and  _374
REMARK  157  A    between atoms: _374  and  _375
REMARK  158  A    between atoms: _375  and  _376
REMARK  159  A    between atoms: _376  and  _377
REMARK  160  A    between atoms: _381  and  _383
REMARK  161  A    between atoms: _383  and  _384
REMARK  162  A    between atoms: _383  and  _386
REMARK  163  A    between atoms: _386  and  _387
REMARK  164  A    between atoms: _390  and  _392
REMARK  165  A    between atoms: _392  and  _393
REMARK  166  A    between atoms: _392  and  _395
REMARK  167  A    between atoms: _395  and  _396
REMARK  168  A    between atoms: _396  and  _397
REMARK  169  A    between atoms: _400  and  _402
REMARK  170  A    between atoms: _402  and  _403
REMARK  171  A    between atoms: _406  and  _408
REMARK  172  A    between atoms: _408  and  _409
REMARK  173  A    between atoms: _408  and  _411
REMARK  174  A    between atoms: _414  and  _416
REMARK  175  A    between atoms: _416  and  _417
REMARK  176  A    between atoms: _416  and  _419
REMARK  177  A    between atoms: _419  and  _420
REMARK  178  A    between atoms: _422  and  _424
REMARK  179  A    between atoms: _424  and  _425
REMARK  180  A    between atoms: _427  and  _429
REMARK  181  A    between atoms: _429  and  _430
REMARK  182  A    between atoms: _429  and  _432
REMARK  183  A    between atoms: _432  and  _433
REMARK  184  A    between atoms: _438  and  _440
REMARK  185  A    between atoms: _440  and  _441
REMARK  186  A    between atoms: _440  and  _443
REMARK  187  A    between atoms: _443  and  _444
REMARK  188  A    between atoms: _449  and  _450
REMARK  189  A    between atoms: _452  and  _454
REMARK  190  A    between atoms: _454  and  _455
REMARK  191  A    between atoms: _454  and  _457
REMARK  192  A    between atoms: _459  and  _461
REMARK  193  A    between atoms: _461  and  _462
REMARK  194  A    between atoms: _461  and  _464
REMARK  195  A    between atoms: _464  and  _465
REMARK  196  A    between atoms: _468  and  _470
REMARK  197  A    between atoms: _470  and  _471
REMARK  198  A    between atoms: _470  and  _473
REMARK  199  A    between atoms: _473  and  _474
REMARK  200  A    between atoms: _477  and  _479
REMARK  201  A    between atoms: _479  and  _480
REMARK  202  A    between atoms: _479  and  _482
REMARK  203  A    between atoms: _482  and  _483
REMARK  204  A    between atoms: _483  and  _484
REMARK  205  A    between atoms: _484  and  _485
REMARK  206  A    between atoms: _485  and  _486
REMARK  207  A    between atoms: _490  and  _492
REMARK  208  A    between atoms: _492  and  _493
REMARK  209  A    between atoms: _492  and  _495
REMARK  210  A    between atoms: _495  and  _496
REMARK  211  A    between atoms: _496  and  _497
REMARK  212  A    between atoms: _497  and  _498
REMARK  213  A    between atoms: _498  and  _499
REMARK  214  A    between atoms: _503  and  _505
REMARK  215  A    between atoms: _505  and  _506
REMARK  216  A    between atoms: _505  and  _508
REMARK  217  A    between atoms: _508  and  _509
REMARK  218  A    between atoms: _509  and  _510
REMARK  219  A    between atoms: _510  and  _511
REMARK  220  A    between atoms: _520  and  _522
REMARK  221  A    between atoms: _522  and  _523
REMARK  222  A    between atoms: _522  and  _525
REMARK  223  A    between atoms: _525  and  _526
REMARK  224  A    between atoms: _529  and  _531
REMARK  225  A    between atoms: _531  and  _532
REMARK  226  A    between atoms: _535  and  _537
REMARK  227  A    between atoms: _537  and  _538
REMARK  228  A    between atoms: _537  and  _540
REMARK  229  A    between atoms: _540  and  _541
REMARK  230  A    between atoms: _541  and  _542
REMARK                            x       y       z     vdW  Elec       q    Type
REMARK                         _______ _______ _______ _____ _____    ______ ____
ROOT
ATOM      1  O   HOH     1      23.297   2.660  51.633  0.00  0.00    +0.000 OA
ENDROOT
TORSDOF 0
REMARK  Name = ../refined-set-2016/3cdb/3cdb_pocket.pdb
REMARK  230 active torsions:
REMARK  status: ('A' for Active; 'I' for Inactive)
REMARK    1  A    between atoms: _1  and  _3
REMARK    2  A    between atoms: _3  and  _4
REMARK    3  A    between atoms: _3  and  _6
REMARK    4  A    between atoms: _6  and  _7
REMARK    5  A    between atoms: _10  and  _12
REMARK    6  A    between atoms: _12  and  _13
REMARK    7  A    between atoms: _12  and  _15
REMARK    8  A    between atoms: _15  and  _16
REMARK    9  A    between atoms: _16  and  _17
REMARK   10  A    between atoms: _20  and  _22
REMARK   11  A    between atoms: _22  and  _23
REMARK   12  A    between atoms: _25  and  _27
REMARK   13  A    between atoms: _27  and  _28
REMARK   14  A    between atoms: _27  and  _30
REMARK   15  A    between atoms: _32  and  _34
REMARK   16  A    between atoms: _34  and  _35
REMARK   17  A    between atoms: _34  and  _37
REMARK   18  A    between atoms: _37  and  _38
REMARK   19  A    between atoms: _41  and  _43
REMARK   20  A    between atoms: _43  and  _44
REMARK   21  A    between atoms: _43  and  _46
REMARK   22  A    between atoms: _49  and  _51
REMARK   23  A    between atoms: _51  and  _52
REMARK   24  A    between atoms: _55  and  _57
REMARK   25  A    between atoms: _57  and  _58
REMARK   26  A    between atoms: _57  and  _60
REMARK   27  A    between atoms: _60  and  _61
REMARK   28  A    between atoms: _63  and  _65
REMARK   29  A    between atoms: _65  and  _66
REMARK   30  A    between atoms: _65  and  _68
REMARK   31  A    between atoms: _68  and  _69
REMARK   32  A    between atoms: _72  and  _74
REMARK   33  A    between atoms: _74  and  _75
REMARK   34  A    between atoms: _74  and  _77
REMARK   35  A    between atoms: _77  and  _78
REMARK   36  A    between atoms: _78  and  _79
REMARK   37  A    between atoms: _79  and  _80
REMARK   38  A    between atoms: _89  and  _91
REMARK   39  A    between atoms: _91  and  _92
REMARK   40  A    between atoms: _91  and  _94
REMARK   41  A    between atoms: _94  and  _95
REMARK   42  A    between atoms: _95  and  _96
REMARK   43  A    between atoms: _96  and  _97
REMARK   44  A    between atoms: _97  and  _98
REMARK   45  A    between atoms: _102  and  _104
REMARK   46  A    between atoms: _104  and  _105
REMARK   47  A    between atoms: _104  and  _107
REMARK   48  A    between atoms: _107  and  _108
REMARK   49  A    between atoms: _113  and  _115
REMARK   50  A    between atoms: _115  and  _116
REMARK   51  A    between atoms: _115  and  _118
REMARK   52  A    between atoms: _118  and  _119
REMARK   53  A    between atoms: _124  and  _126
REMARK   54  A    between atoms: _126  and  _127
REMARK   55  A    between atoms: _130  and  _132
REMARK   56  A    between atoms: _132  and  _133
REMARK   57  A    between atoms: _132  and  _135
REMARK   58  A    between atoms: _135  and  _136
REMARK   59  A    between atoms: _141  and  _143
REMARK   60  A    between atoms: _143  and  _144
REMARK   61  A    between atoms: _147  and  _149
REMARK   62  A    between atoms: _149  and  _150
REMARK   63  A    between atoms: _153  and  _155
REMARK   64  A    between atoms: _155  and  _156
REMARK   65  A    between atoms: _155  and  _158
REMARK   66  A    between atoms: _158  and  _159
REMARK   67  A    between atoms: _164  and  _166
REMARK   68  A    between atoms: _166  and  _167
REMARK   69  A    between atoms: _166  and  _169
REMARK   70  A    between atoms: _169  and  _170
REMARK   71  A    between atoms: _173  and  _175
REMARK   72  A    between atoms: _175  and  _176
REMARK   73  A    between atoms: _178  and  _180
REMARK   74  A    between atoms: _180  and  _181
REMARK   75  A    between atoms: _180  and  _183
REMARK   76  A    between atoms: _183  and  _184
REMARK   77  A    between atoms: _184  and  _185
REMARK   78  A    between atoms: _188  and  _190
REMARK   79  A    between atoms: _190  and  _191
REMARK   80  A    between atoms: _190  and  _193
REMARK   81  A    between atoms: _193  and  _194
REMARK   82  A    between atoms: _196  and  _198
REMARK   83  A    between atoms: _198  and  _199
REMARK   84  A    between atoms: _198  and  _201
REMARK   85  A    between atoms: _201  and  _202
REMARK   86  A    between atoms: _205  and  _207
REMARK   87  A    between atoms: _207  and  _208
REMARK   88  A    between atoms: _207  and  _210
REMARK   89  A    between atoms: _210  and  _211
REMARK   90  A    between atoms: _211  and  _212
REMARK   91  A    between atoms: _214  and  _216
REMARK   92  A    between atoms: _216  and  _217
REMARK   93  A    between atoms: _220  and  _222
REMARK   94  A    between atoms: _222  and  _223
REMARK   95  A    between atoms: _226  and  _228
REMARK   96  A    between atoms: _228  and  _229
REMARK   97  A    between atoms: _228  and  _231
REMARK   98  A    between atoms: _231  and  _232
REMARK   99  A    between atoms: _235  and  _237
REMARK  100  A    between atoms: _237  and  _238
REMARK  101  A    between atoms: _241  and  _243
REMARK  102  A    between atoms: _243  and  _244
REMARK  103  A    between atoms: _247  and  _249
REMARK  104  A    between atoms: _249  and  _250
REMARK  105  A    between atoms: _252  and  _254
REMARK  106  A    between atoms: _254  and  _255
REMARK  107  A    between atoms: _254  and  _257
REMARK  108  A    between atoms: _257  and  _258
REMARK  109  A    between atoms: _263  and  _265
REMARK  110  A    between atoms: _265  and  _266
REMARK  111  A    between atoms: _268  and  _270
REMARK  112  A    between atoms: _270  and  _271
REMARK  113  A    between atoms: _274  and  _276
REMARK  114  A    between atoms: _276  and  _277
REMARK  115  A    between atoms: _276  and  _279
REMARK  116  A    between atoms: _279  and  _280
REMARK  117  A    between atoms: _280  and  _281
REMARK  118  A    between atoms: _284  and  _286
REMARK  119  A    between atoms: _286  and  _287
REMARK  120  A    between atoms: _286  and  _289
REMARK  121  A    between atoms: _289  and  _290
REMARK  122  A    between atoms: _293  and  _295
REMARK  123  A    between atoms: _295  and  _296
REMARK  124  A    between atoms: _295  and  _298
REMARK  125  A    between atoms: _298  and  _299
REMARK  126  A    between atoms: _299  and  _300
REMARK  127  A    between atoms: _300  and  _301
REMARK  128  A    between atoms: _310  and  _312
REMARK  129  A    between atoms: _312  and  _313
REMARK  130  A    between atoms: _316  and  _317
REMARK  131  A    between atoms: _322  and  _324
REMARK  132  A    between atoms: _324  and  _325
REMARK  133  A    between atoms: _324  and  _327
REMARK  134  A    between atoms: _327  and  _328
REMARK  135  A    between atoms: _328  and  _329
REMARK  136  A    between atoms: _331  and  _333
REMARK  137  A    between atoms: _333  and  _334
REMARK  138  A    between atoms: _333  and  _336
REMARK  139  A    between atoms: _336  and  _337
REMARK  140  A    between atoms: _337  and  _338
REMARK  141  A    between atoms: _340  and  _342
REMARK  142  A    between atoms: _342  and  _343
REMARK  143  A    between atoms: _342  and  _345
REMARK  144  A    between atoms: _345  and  _346
REMARK  145  A    between atoms: _351  and  _353
REMARK  146  A    between atoms: _353  and  _354
REMARK  147  A    between atoms: _353  and  _356
REMARK  148  A    between atoms: _356  and  _357
REMARK  149  A    between atoms: _360  and  _362
REMARK  150  A    between atoms: _362  and  _363
REMARK  151  A    between atoms: _362  and  _365
REMARK  152  A    between atoms: _365  and  _366
REMARK  153  A    between atoms: _368  and  _370
REMARK  154  A    between atoms: _370  and  _371
REMARK  155  A    between atoms: _370  and  _373
REMARK  156  A    between atoms: _373  and  _374
REMARK  157  A    between atoms: _374  and  _375
REMARK  158  A    between atoms: _375  and  _376
REMARK  159  A    between atoms: _376  and  _377
REMARK  160  A    between atoms: _381  and  _383
REMARK  161  A    between atoms: _383  and  _384
REMARK  162  A    between atoms: _383  and  _386
REMARK  163  A    between atoms: _386  and  _387
REMARK  164  A    between atoms: _390  and  _392
REMARK  165  A    between atoms: _392  and  _393
REMARK  166  A    between atoms: _392  and  _395
REMARK  167  A    between atoms: _395  and  _396
REMARK  168  A    between atoms: _396  and  _397
REMARK  169  A    between atoms: _400  and  _402
REMARK  170  A    between atoms: _402  and  _403
REMARK  171  A    between atoms: _406  and  _408
REMARK  172  A    between atoms: _408  and  _409
REMARK  173  A    between atoms: _408  and  _411
REMARK  174  A    between atoms: _414  and  _416
REMARK  175  A    between atoms: _416  and  _417
REMARK  176  A    between atoms: _416  and  _419
REMARK  177  A    between atoms: _419  and  _420
REMARK  178  A    between atoms: _422  and  _424
REMARK  179  A    between atoms: _424  and  _425
REMARK  180  A    between atoms: _427  and  _429
REMARK  181  A    between atoms: _429  and  _430
REMARK  182  A    between atoms: _429  and  _432
REMARK  183  A    between atoms: _432  and  _433
REMARK  184  A    between atoms: _438  and  _440
REMARK  185  A    between atoms: _440  and  _441
REMARK  186  A    between atoms: _440  and  _443
REMARK  187  A    between atoms: _443  and  _444
REMARK  188  A    between atoms: _449  and  _450
REMARK  189  A    between atoms: _452  and  _454
REMARK  190  A    between atoms: _454  and  _455
REMARK  191  A    between atoms: _454  and  _457
REMARK  192  A    between atoms: _459  and  _461
REMARK  193  A    between atoms: _461  and  _462
REMARK  194  A    between atoms: _461  and  _464
REMARK  195  A    between atoms: _464  and  _465
REMARK  196  A    between atoms: _468  and  _470
REMARK  197  A    between atoms: _470  and  _471
REMARK  198  A    between atoms: _470  and  _473
REMARK  199  A    between atoms: _473  and  _474
REMARK  200  A    between atoms: _477  and  _479
REMARK  201  A    between atoms: _479  and  _480
REMARK  202  A    between atoms: _479  and  _482
REMARK  203  A    between atoms: _482  and  _483
REMARK  204  A    between atoms: _483  and  _484
REMARK  205  A    between atoms: _484  and  _485
REMARK  206  A    between atoms: _485  and  _486
REMARK  207  A    between atoms: _490  and  _492
REMARK  208  A    between atoms: _492  and  _493
REMARK  209  A    between atoms: _492  and  _495
REMARK  210  A    between atoms: _495  and  _496
REMARK  211  A    between atoms: _496  and  _497
REMARK  212  A    between atoms: _497  and  _498
REMARK  213  A    between atoms: _498  and  _499
REMARK  214  A    between atoms: _503  and  _505
REMARK  215  A    between atoms: _505  and  _506
REMARK  216  A    between atoms: _505  and  _508
REMARK  217  A    between atoms: _508  and  _509
REMARK  218  A    between atoms: _509  and  _510
REMARK  219  A    between atoms: _510  and  _511
REMARK  220  A    between atoms: _520  and  _522
REMARK  221  A    between atoms: _522  and  _523
REMARK  222  A    between atoms: _522  and  _525
REMARK  223  A    between atoms: _525  and  _526
REMARK  224  A    between atoms: _529  and  _531
REMARK  225  A    between atoms: _531  and  _532
REMARK  226  A    between atoms: _535  and  _537
REMARK  227  A    between atoms: _537  and  _538
REMARK  228  A    between atoms: _537  and  _540
REMARK  229  A    between atoms: _540  and  _541
REMARK  230  A    between atoms: _541  and  _542
REMARK                            x       y       z     vdW  Elec       q    Type
REMARK                         _______ _______ _______ _____ _____    ______ ____
ROOT
ATOM      1  O   HOH     1      19.852  11.021  42.871  0.00  0.00    +0.000 OA
ENDROOT
TORSDOF 0
REMARK  Name = ../refined-set-2016/3cdb/3cdb_pocket.pdb
REMARK  230 active torsions:
REMARK  status: ('A' for Active; 'I' for Inactive)
REMARK    1  A    between atoms: _1  and  _3
REMARK    2  A    between atoms: _3  and  _4
REMARK    3  A    between atoms: _3  and  _6
REMARK    4  A    between atoms: _6  and  _7
REMARK    5  A    between atoms: _10  and  _12
REMARK    6  A    between atoms: _12  and  _13
REMARK    7  A    between atoms: _12  and  _15
REMARK    8  A    between atoms: _15  and  _16
REMARK    9  A    between atoms: _16  and  _17
REMARK   10  A    between atoms: _20  and  _22
REMARK   11  A    between atoms: _22  and  _23
REMARK   12  A    between atoms: _25  and  _27
REMARK   13  A    between atoms: _27  and  _28
REMARK   14  A    between atoms: _27  and  _30
REMARK   15  A    between atoms: _32  and  _34
REMARK   16  A    between atoms: _34  and  _35
REMARK   17  A    between atoms: _34  and  _37
REMARK   18  A    between atoms: _37  and  _38
REMARK   19  A    between atoms: _41  and  _43
REMARK   20  A    between atoms: _43  and  _44
REMARK   21  A    between atoms: _43  and  _46
REMARK   22  A    between atoms: _49  and  _51
REMARK   23  A    between atoms: _51  and  _52
REMARK   24  A    between atoms: _55  and  _57
REMARK   25  A    between atoms: _57  and  _58
REMARK   26  A    between atoms: _57  and  _60
REMARK   27  A    between atoms: _60  and  _61
REMARK   28  A    between atoms: _63  and  _65
REMARK   29  A    between atoms: _65  and  _66
REMARK   30  A    between atoms: _65  and  _68
REMARK   31  A    between atoms: _68  and  _69
REMARK   32  A    between atoms: _72  and  _74
REMARK   33  A    between atoms: _74  and  _75
REMARK   34  A    between atoms: _74  and  _77
REMARK   35  A    between atoms: _77  and  _78
REMARK   36  A    between atoms: _78  and  _79
REMARK   37  A    between atoms: _79  and  _80
REMARK   38  A    between atoms: _89  and  _91
REMARK   39  A    between atoms: _91  and  _92
REMARK   40  A    between atoms: _91  and  _94
REMARK   41  A    between atoms: _94  and  _95
REMARK   42  A    between atoms: _95  and  _96
REMARK   43  A    between atoms: _96  and  _97
REMARK   44  A    between atoms: _97  and  _98
REMARK   45  A    between atoms: _102  and  _104
REMARK   46  A    between atoms: _104  and  _105
REMARK   47  A    between atoms: _104  and  _107
REMARK   48  A    between atoms: _107  and  _108
REMARK   49  A    between atoms: _113  and  _115
REMARK   50  A    between atoms: _115  and  _116
REMARK   51  A    between atoms: _115  and  _118
REMARK   52  A    between atoms: _118  and  _119
REMARK   53  A    between atoms: _124  and  _126
REMARK   54  A    between atoms: _126  and  _127
REMARK   55  A    between atoms: _130  and  _132
REMARK   56  A    between atoms: _132  and  _133
REMARK   57  A    between atoms: _132  and  _135
REMARK   58  A    between atoms: _135  and  _136
REMARK   59  A    between atoms: _141  and  _143
REMARK   60  A    between atoms: _143  and  _144
REMARK   61  A    between atoms: _147  and  _149
REMARK   62  A    between atoms: _149  and  _150
REMARK   63  A    between atoms: _153  and  _155
REMARK   64  A    between atoms: _155  and  _156
REMARK   65  A    between atoms: _155  and  _158
REMARK   66  A    between atoms: _158  and  _159
REMARK   67  A    between atoms: _164  and  _166
REMARK   68  A    between atoms: _166  and  _167
REMARK   69  A    between atoms: _166  and  _169
REMARK   70  A    between atoms: _169  and  _170
REMARK   71  A    between atoms: _173  and  _175
REMARK   72  A    between atoms: _175  and  _176
REMARK   73  A    between atoms: _178  and  _180
REMARK   74  A    between atoms: _180  and  _181
REMARK   75  A    between atoms: _180  and  _183
REMARK   76  A    between atoms: _183  and  _184
REMARK   77  A    between atoms: _184  and  _185
REMARK   78  A    between atoms: _188  and  _190
REMARK   79  A    between atoms: _190  and  _191
REMARK   80  A    between atoms: _190  and  _193
REMARK   81  A    between atoms: _193  and  _194
REMARK   82  A    between atoms: _196  and  _198
REMARK   83  A    between atoms: _198  and  _199
REMARK   84  A    between atoms: _198  and  _201
REMARK   85  A    between atoms: _201  and  _202
REMARK   86  A    between atoms: _205  and  _207
REMARK   87  A    between atoms: _207  and  _208
REMARK   88  A    between atoms: _207  and  _210
REMARK   89  A    between atoms: _210  and  _211
REMARK   90  A    between atoms: _211  and  _212
REMARK   91  A    between atoms: _214  and  _216
REMARK   92  A    between atoms: _216  and  _217
REMARK   93  A    between atoms: _220  and  _222
REMARK   94  A    between atoms: _222  and  _223
REMARK   95  A    between atoms: _226  and  _228
REMARK   96  A    between atoms: _228  and  _229
REMARK   97  A    between atoms: _228  and  _231
REMARK   98  A    between atoms: _231  and  _232
REMARK   99  A    between atoms: _235  and  _237
REMARK  100  A    between atoms: _237  and  _238
REMARK  101  A    between atoms: _241  and  _243
REMARK  102  A    between atoms: _243  and  _244
REMARK  103  A    between atoms: _247  and  _249
REMARK  104  A    between atoms: _249  and  _250
REMARK  105  A    between atoms: _252  and  _254
REMARK  106  A    between atoms: _254  and  _255
REMARK  107  A    between atoms: _254  and  _257
REMARK  108  A    between atoms: _257  and  _258
REMARK  109  A    between atoms: _263  and  _265
REMARK  110  A    between atoms: _265  and  _266
REMARK  111  A    between atoms: _268  and  _270
REMARK  112  A    between atoms: _270  and  _271
REMARK  113  A    between atoms: _274  and  _276
REMARK  114  A    between atoms: _276  and  _277
REMARK  115  A    between atoms: _276  and  _279
REMARK  116  A    between atoms: _279  and  _280
REMARK  117  A    between atoms: _280  and  _281
REMARK  118  A    between atoms: _284  and  _286
REMARK  119  A    between atoms: _286  and  _287
REMARK  120  A    between atoms: _286  and  _289
REMARK  121  A    between atoms: _289  and  _290
REMARK  122  A    between atoms: _293  and  _295
REMARK  123  A    between atoms: _295  and  _296
REMARK  124  A    between atoms: _295  and  _298
REMARK  125  A    between atoms: _298  and  _299
REMARK  126  A    between atoms: _299  and  _300
REMARK  127  A    between atoms: _300  and  _301
REMARK  128  A    between atoms: _310  and  _312
REMARK  129  A    between atoms: _312  and  _313
REMARK  130  A    between atoms: _316  and  _317
REMARK  131  A    between atoms: _322  and  _324
REMARK  132  A    between atoms: _324  and  _325
REMARK  133  A    between atoms: _324  and  _327
REMARK  134  A    between atoms: _327  and  _328
REMARK  135  A    between atoms: _328  and  _329
REMARK  136  A    between atoms: _331  and  _333
REMARK  137  A    between atoms: _333  and  _334
REMARK  138  A    between atoms: _333  and  _336
REMARK  139  A    between atoms: _336  and  _337
REMARK  140  A    between atoms: _337  and  _338
REMARK  141  A    between atoms: _340  and  _342
REMARK  142  A    between atoms: _342  and  _343
REMARK  143  A    between atoms: _342  and  _345
REMARK  144  A    between atoms: _345  and  _346
REMARK  145  A    between atoms: _351  and  _353
REMARK  146  A    between atoms: _353  and  _354
REMARK  147  A    between atoms: _353  and  _356
REMARK  148  A    between atoms: _356  and  _357
REMARK  149  A    between atoms: _360  and  _362
REMARK  150  A    between atoms: _362  and  _363
REMARK  151  A    between atoms: _362  and  _365
REMARK  152  A    between atoms: _365  and  _366
REMARK  153  A    between atoms: _368  and  _370
REMARK  154  A    between atoms: _370  and  _371
REMARK  155  A    between atoms: _370  and  _373
REMARK  156  A    between atoms: _373  and  _374
REMARK  157  A    between atoms: _374  and  _375
REMARK  158  A    between atoms: _375  and  _376
REMARK  159  A    between atoms: _376  and  _377
REMARK  160  A    between atoms: _381  and  _383
REMARK  161  A    between atoms: _383  and  _384
REMARK  162  A    between atoms: _383  and  _386
REMARK  163  A    between atoms: _386  and  _387
REMARK  164  A    between atoms: _390  and  _392
REMARK  165  A    between atoms: _392  and  _393
REMARK  166  A    between atoms: _392  and  _395
REMARK  167  A    between atoms: _395  and  _396
REMARK  168  A    between atoms: _396  and  _397
REMARK  169  A    between atoms: _400  and  _402
REMARK  170  A    between atoms: _402  and  _403
REMARK  171  A    between atoms: _406  and  _408
REMARK  172  A    between atoms: _408  and  _409
REMARK  173  A    between atoms: _408  and  _411
REMARK  174  A    between atoms: _414  and  _416
REMARK  175  A    between atoms: _416  and  _417
REMARK  176  A    between atoms: _416  and  _419
REMARK  177  A    between atoms: _419  and  _420
REMARK  178  A    between atoms: _422  and  _424
REMARK  179  A    between atoms: _424  and  _425
REMARK  180  A    between atoms: _427  and  _429
REMARK  181  A    between atoms: _429  and  _430
REMARK  182  A    between atoms: _429  and  _432
REMARK  183  A    between atoms: _432  and  _433
REMARK  184  A    between atoms: _438  and  _440
REMARK  185  A    between atoms: _440  and  _441
REMARK  186  A    between atoms: _440  and  _443
REMARK  187  A    between atoms: _443  and  _444
REMARK  188  A    between atoms: _449  and  _450
REMARK  189  A    between atoms: _452  and  _454
REMARK  190  A    between atoms: _454  and  _455
REMARK  191  A    between atoms: _454  and  _457
REMARK  192  A    between atoms: _459  and  _461
REMARK  193  A    between atoms: _461  and  _462
REMARK  194  A    between atoms: _461  and  _464
REMARK  195  A    between atoms: _464  and  _465
REMARK  196  A    between atoms: _468  and  _470
REMARK  197  A    between atoms: _470  and  _471
REMARK  198  A    between atoms: _470  and  _473
REMARK  199  A    between atoms: _473  and  _474
REMARK  200  A    between atoms: _477  and  _479
REMARK  201  A    between atoms: _479  and  _480
REMARK  202  A    between atoms: _479  and  _482
REMARK  203  A    between atoms: _482  and  _483
REMARK  204  A    between atoms: _483  and  _484
REMARK  205  A    between atoms: _484  and  _485
REMARK  206  A    between atoms: _485  and  _486
REMARK  207  A    between atoms: _490  and  _492
REMARK  208  A    between atoms: _492  and  _493
REMARK  209  A    between atoms: _492  and  _495
REMARK  210  A    between atoms: _495  and  _496
REMARK  211  A    between atoms: _496  and  _497
REMARK  212  A    between atoms: _497  and  _498
REMARK  213  A    between atoms: _498  and  _499
REMARK  214  A    between atoms: _503  and  _505
REMARK  215  A    between atoms: _505  and  _506
REMARK  216  A    between atoms: _505  and  _508
REMARK  217  A    between atoms: _508  and  _509
REMARK  218  A    between atoms: _509  and  _510
REMARK  219  A    between atoms: _510  and  _511
REMARK  220  A    between atoms: _520  and  _522
REMARK  221  A    between atoms: _522  and  _523
REMARK  222  A    between atoms: _522  and  _525
REMARK  223  A    between atoms: _525  and  _526
REMARK  224  A    between atoms: _529  and  _531
REMARK  225  A    between atoms: _531  and  _532
REMARK  226  A    between atoms: _535  and  _537
REMARK  227  A    between atoms: _537  and  _538
REMARK  228  A    between atoms: _537  and  _540
REMARK  229  A    between atoms: _540  and  _541
REMARK  230  A    between atoms: _541  and  _542
REMARK                            x       y       z     vdW  Elec       q    Type
REMARK                         _______ _______ _______ _____ _____    ______ ____
ROOT
ATOM      1  O   HOH     1      14.444   7.806  33.482  0.00  0.00    +0.000 OA
ENDROOT
TORSDOF 0
REMARK  Name = ../refined-set-2016/3cdb/3cdb_pocket.pdb
REMARK  230 active torsions:
REMARK  status: ('A' for Active; 'I' for Inactive)
REMARK    1  A    between atoms: _1  and  _3
REMARK    2  A    between atoms: _3  and  _4
REMARK    3  A    between atoms: _3  and  _6
REMARK    4  A    between atoms: _6  and  _7
REMARK    5  A    between atoms: _10  and  _12
REMARK    6  A    between atoms: _12  and  _13
REMARK    7  A    between atoms: _12  and  _15
REMARK    8  A    between atoms: _15  and  _16
REMARK    9  A    between atoms: _16  and  _17
REMARK   10  A    between atoms: _20  and  _22
REMARK   11  A    between atoms: _22  and  _23
REMARK   12  A    between atoms: _25  and  _27
REMARK   13  A    between atoms: _27  and  _28
REMARK   14  A    between atoms: _27  and  _30
REMARK   15  A    between atoms: _32  and  _34
REMARK   16  A    between atoms: _34  and  _35
REMARK   17  A    between atoms: _34  and  _37
REMARK   18  A    between atoms: _37  and  _38
REMARK   19  A    between atoms: _41  and  _43
REMARK   20  A    between atoms: _43  and  _44
REMARK   21  A    between atoms: _43  and  _46
REMARK   22  A    between atoms: _49  and  _51
REMARK   23  A    between atoms: _51  and  _52
REMARK   24  A    between atoms: _55  and  _57
REMARK   25  A    between atoms: _57  and  _58
REMARK   26  A    between atoms: _57  and  _60
REMARK   27  A    between atoms: _60  and  _61
REMARK   28  A    between atoms: _63  and  _65
REMARK   29  A    between atoms: _65  and  _66
REMARK   30  A    between atoms: _65  and  _68
REMARK   31  A    between atoms: _68  and  _69
REMARK   32  A    between atoms: _72  and  _74
REMARK   33  A    between atoms: _74  and  _75
REMARK   34  A    between atoms: _74  and  _77
REMARK   35  A    between atoms: _77  and  _78
REMARK   36  A    between atoms: _78  and  _79
REMARK   37  A    between atoms: _79  and  _80
REMARK   38  A    between atoms: _89  and  _91
REMARK   39  A    between atoms: _91  and  _92
REMARK   40  A    between atoms: _91  and  _94
REMARK   41  A    between atoms: _94  and  _95
REMARK   42  A    between atoms: _95  and  _96
REMARK   43  A    between atoms: _96  and  _97
REMARK   44  A    between atoms: _97  and  _98
REMARK   45  A    between atoms: _102  and  _104
REMARK   46  A    between atoms: _104  and  _105
REMARK   47  A    between atoms: _104  and  _107
REMARK   48  A    between atoms: _107  and  _108
REMARK   49  A    between atoms: _113  and  _115
REMARK   50  A    between atoms: _115  and  _116
REMARK   51  A    between atoms: _115  and  _118
REMARK   52  A    between atoms: _118  and  _119
REMARK   53  A    between atoms: _124  and  _126
REMARK   54  A    between atoms: _126  and  _127
REMARK   55  A    between atoms: _130  and  _132
REMARK   56  A    between atoms: _132  and  _133
REMARK   57  A    between atoms: _132  and  _135
REMARK   58  A    between atoms: _135  and  _136
REMARK   59  A    between atoms: _141  and  _143
REMARK   60  A    between atoms: _143  and  _144
REMARK   61  A    between atoms: _147  and  _149
REMARK   62  A    between atoms: _149  and  _150
REMARK   63  A    between atoms: _153  and  _155
REMARK   64  A    between atoms: _155  and  _156
REMARK   65  A    between atoms: _155  and  _158
REMARK   66  A    between atoms: _158  and  _159
REMARK   67  A    between atoms: _164  and  _166
REMARK   68  A    between atoms: _166  and  _167
REMARK   69  A    between atoms: _166  and  _169
REMARK   70  A    between atoms: _169  and  _170
REMARK   71  A    between atoms: _173  and  _175
REMARK   72  A    between atoms: _175  and  _176
REMARK   73  A    between atoms: _178  and  _180
REMARK   74  A    between atoms: _180  and  _181
REMARK   75  A    between atoms: _180  and  _183
REMARK   76  A    between atoms: _183  and  _184
REMARK   77  A    between atoms: _184  and  _185
REMARK   78  A    between atoms: _188  and  _190
REMARK   79  A    between atoms: _190  and  _191
REMARK   80  A    between atoms: _190  and  _193
REMARK   81  A    between atoms: _193  and  _194
REMARK   82  A    between atoms: _196  and  _198
REMARK   83  A    between atoms: _198  and  _199
REMARK   84  A    between atoms: _198  and  _201
REMARK   85  A    between atoms: _201  and  _202
REMARK   86  A    between atoms: _205  and  _207
REMARK   87  A    between atoms: _207  and  _208
REMARK   88  A    between atoms: _207  and  _210
REMARK   89  A    between atoms: _210  and  _211
REMARK   90  A    between atoms: _211  and  _212
REMARK   91  A    between atoms: _214  and  _216
REMARK   92  A    between atoms: _216  and  _217
REMARK   93  A    between atoms: _220  and  _222
REMARK   94  A    between atoms: _222  and  _223
REMARK   95  A    between atoms: _226  and  _228
REMARK   96  A    between atoms: _228  and  _229
REMARK   97  A    between atoms: _228  and  _231
REMARK   98  A    between atoms: _231  and  _232
REMARK   99  A    between atoms: _235  and  _237
REMARK  100  A    between atoms: _237  and  _238
REMARK  101  A    between atoms: _241  and  _243
REMARK  102  A    between atoms: _243  and  _244
REMARK  103  A    between atoms: _247  and  _249
REMARK  104  A    between atoms: _249  and  _250
REMARK  105  A    between atoms: _252  and  _254
REMARK  106  A    between atoms: _254  and  _255
REMARK  107  A    between atoms: _254  and  _257
REMARK  108  A    between atoms: _257  and  _258
REMARK  109  A    between atoms: _263  and  _265
REMARK  110  A    between atoms: _265  and  _266
REMARK  111  A    between atoms: _268  and  _270
REMARK  112  A    between atoms: _270  and  _271
REMARK  113  A    between atoms: _274  and  _276
REMARK  114  A    between atoms: _276  and  _277
REMARK  115  A    between atoms: _276  and  _279
REMARK  116  A    between atoms: _279  and  _280
REMARK  117  A    between atoms: _280  and  _281
REMARK  118  A    between atoms: _284  and  _286
REMARK  119  A    between atoms: _286  and  _287
REMARK  120  A    between atoms: _286  and  _289
REMARK  121  A    between atoms: _289  and  _290
REMARK  122  A    between atoms: _293  and  _295
REMARK  123  A    between atoms: _295  and  _296
REMARK  124  A    between atoms: _295  and  _298
REMARK  125  A    between atoms: _298  and  _299
REMARK  126  A    between atoms: _299  and  _300
REMARK  127  A    between atoms: _300  and  _301
REMARK  128  A    between atoms: _310  and  _312
REMARK  129  A    between atoms: _312  and  _313
REMARK  130  A    between atoms: _316  and  _317
REMARK  131  A    between atoms: _322  and  _324
REMARK  132  A    between atoms: _324  and  _325
REMARK  133  A    between atoms: _324  and  _327
REMARK  134  A    between atoms: _327  and  _328
REMARK  135  A    between atoms: _328  and  _329
REMARK  136  A    between atoms: _331  and  _333
REMARK  137  A    between atoms: _333  and  _334
REMARK  138  A    between atoms: _333  and  _336
REMARK  139  A    between atoms: _336  and  _337
REMARK  140  A    between atoms: _337  and  _338
REMARK  141  A    between atoms: _340  and  _342
REMARK  142  A    between atoms: _342  and  _343
REMARK  143  A    between atoms: _342  and  _345
REMARK  144  A    between atoms: _345  and  _346
REMARK  145  A    between atoms: _351  and  _353
REMARK  146  A    between atoms: _353  and  _354
REMARK  147  A    between atoms: _353  and  _356
REMARK  148  A    between atoms: _356  and  _357
REMARK  149  A    between atoms: _360  and  _362
REMARK  150  A    between atoms: _362  and  _363
REMARK  151  A    between atoms: _362  and  _365
REMARK  152  A    between atoms: _365  and  _366
REMARK  153  A    between atoms: _368  and  _370
REMARK  154  A    between atoms: _370  and  _371
REMARK  155  A    between atoms: _370  and  _373
REMARK  156  A    between atoms: _373  and  _374
REMARK  157  A    between atoms: _374  and  _375
REMARK  158  A    between atoms: _375  and  _376
REMARK  159  A    between atoms: _376  and  _377
REMARK  160  A    between atoms: _381  and  _383
REMARK  161  A    between atoms: _383  and  _384
REMARK  162  A    between atoms: _383  and  _386
REMARK  163  A    between atoms: _386  and  _387
REMARK  164  A    between atoms: _390  and  _392
REMARK  165  A    between atoms: _392  and  _393
REMARK  166  A    between atoms: _392  and  _395
REMARK  167  A    between atoms: _395  and  _396
REMARK  168  A    between atoms: _396  and  _397
REMARK  169  A    between atoms: _400  and  _402
REMARK  170  A    between atoms: _402  and  _403
REMARK  171  A    between atoms: _406  and  _408
REMARK  172  A    between atoms: _408  and  _409
REMARK  173  A    between atoms: _408  and  _411
REMARK  174  A    between atoms: _414  and  _416
REMARK  175  A    between atoms: _416  and  _417
REMARK  176  A    between atoms: _416  and  _419
REMARK  177  A    between atoms: _419  and  _420
REMARK  178  A    between atoms: _422  and  _424
REMARK  179  A    between atoms: _424  and  _425
REMARK  180  A    between atoms: _427  and  _429
REMARK  181  A    between atoms: _429  and  _430
REMARK  182  A    between atoms: _429  and  _432
REMARK  183  A    between atoms: _432  and  _433
REMARK  184  A    between atoms: _438  and  _440
REMARK  185  A    between atoms: _440  and  _441
REMARK  186  A    between atoms: _440  and  _443
REMARK  187  A    between atoms: _443  and  _444
REMARK  188  A    between atoms: _449  and  _450
REMARK  189  A    between atoms: _452  and  _454
REMARK  190  A    between atoms: _454  and  _455
REMARK  191  A    between atoms: _454  and  _457
REMARK  192  A    between atoms: _459  and  _461
REMARK  193  A    between atoms: _461  and  _462
REMARK  194  A    between atoms: _461  and  _464
REMARK  195  A    between atoms: _464  and  _465
REMARK  196  A    between atoms: _468  and  _470
REMARK  197  A    between atoms: _470  and  _471
REMARK  198  A    between atoms: _470  and  _473
REMARK  199  A    between atoms: _473  and  _474
REMARK  200  A    between atoms: _477  and  _479
REMARK  201  A    between atoms: _479  and  _480
REMARK  202  A    between atoms: _479  and  _482
REMARK  203  A    between atoms: _482  and  _483
REMARK  204  A    between atoms: _483  and  _484
REMARK  205  A    between atoms: _484  and  _485
REMARK  206  A    between atoms: _485  and  _486
REMARK  207  A    between atoms: _490  and  _492
REMARK  208  A    between atoms: _492  and  _493
REMARK  209  A    between atoms: _492  and  _495
REMARK  210  A    between atoms: _495  and  _496
REMARK  211  A    between atoms: _496  and  _497
REMARK  212  A    between atoms: _497  and  _498
REMARK  213  A    between atoms: _498  and  _499
REMARK  214  A    between atoms: _503  and  _505
REMARK  215  A    between atoms: _505  and  _506
REMARK  216  A    between atoms: _505  and  _508
REMARK  217  A    between atoms: _508  and  _509
REMARK  218  A    between atoms: _509  and  _510
REMARK  219  A    between atoms: _510  and  _511
REMARK  220  A    between atoms: _520  and  _522
REMARK  221  A    between atoms: _522  and  _523
REMARK  222  A    between atoms: _522  and  _525
REMARK  223  A    between atoms: _525  and  _526
REMARK  224  A    between atoms: _529  and  _531
REMARK  225  A    between atoms: _531  and  _532
REMARK  226  A    between atoms: _535  and  _537
REMARK  227  A    between atoms: _537  and  _538
REMARK  228  A    between atoms: _537  and  _540
REMARK  229  A    between atoms: _540  and  _541
REMARK  230  A    between atoms: _541  and  _542
REMARK                            x       y       z     vdW  Elec       q    Type
REMARK                         _______ _______ _______ _____ _____    ______ ____
ROOT
ATOM      1  O   HOH     1      10.266  13.383  41.237  0.00  0.00    +0.000 OA
ENDROOT
TORSDOF 0
REMARK  Name = ../refined-set-2016/3cdb/3cdb_pocket.pdb
REMARK  230 active torsions:
REMARK  status: ('A' for Active; 'I' for Inactive)
REMARK    1  A    between atoms: _1  and  _3
REMARK    2  A    between atoms: _3  and  _4
REMARK    3  A    between atoms: _3  and  _6
REMARK    4  A    between atoms: _6  and  _7
REMARK    5  A    between atoms: _10  and  _12
REMARK    6  A    between atoms: _12  and  _13
REMARK    7  A    between atoms: _12  and  _15
REMARK    8  A    between atoms: _15  and  _16
REMARK    9  A    between atoms: _16  and  _17
REMARK   10  A    between atoms: _20  and  _22
REMARK   11  A    between atoms: _22  and  _23
REMARK   12  A    between atoms: _25  and  _27
REMARK   13  A    between atoms: _27  and  _28
REMARK   14  A    between atoms: _27  and  _30
REMARK   15  A    between atoms: _32  and  _34
REMARK   16  A    between atoms: _34  and  _35
REMARK   17  A    between atoms: _34  and  _37
REMARK   18  A    between atoms: _37  and  _38
REMARK   19  A    between atoms: _41  and  _43
REMARK   20  A    between atoms: _43  and  _44
REMARK   21  A    between atoms: _43  and  _46
REMARK   22  A    between atoms: _49  and  _51
REMARK   23  A    between atoms: _51  and  _52
REMARK   24  A    between atoms: _55  and  _57
REMARK   25  A    between atoms: _57  and  _58
REMARK   26  A    between atoms: _57  and  _60
REMARK   27  A    between atoms: _60  and  _61
REMARK   28  A    between atoms: _63  and  _65
REMARK   29  A    between atoms: _65  and  _66
REMARK   30  A    between atoms: _65  and  _68
REMARK   31  A    between atoms: _68  and  _69
REMARK   32  A    between atoms: _72  and  _74
REMARK   33  A    between atoms: _74  and  _75
REMARK   34  A    between atoms: _74  and  _77
REMARK   35  A    between atoms: _77  and  _78
REMARK   36  A    between atoms: _78  and  _79
REMARK   37  A    between atoms: _79  and  _80
REMARK   38  A    between atoms: _89  and  _91
REMARK   39  A    between atoms: _91  and  _92
REMARK   40  A    between atoms: _91  and  _94
REMARK   41  A    between atoms: _94  and  _95
REMARK   42  A    between atoms: _95  and  _96
REMARK   43  A    between atoms: _96  and  _97
REMARK   44  A    between atoms: _97  and  _98
REMARK   45  A    between atoms: _102  and  _104
REMARK   46  A    between atoms: _104  and  _105
REMARK   47  A    between atoms: _104  and  _107
REMARK   48  A    between atoms: _107  and  _108
REMARK   49  A    between atoms: _113  and  _115
REMARK   50  A    between atoms: _115  and  _116
REMARK   51  A    between atoms: _115  and  _118
REMARK   52  A    between atoms: _118  and  _119
REMARK   53  A    between atoms: _124  and  _126
REMARK   54  A    between atoms: _126  and  _127
REMARK   55  A    between atoms: _130  and  _132
REMARK   56  A    between atoms: _132  and  _133
REMARK   57  A    between atoms: _132  and  _135
REMARK   58  A    between atoms: _135  and  _136
REMARK   59  A    between atoms: _141  and  _143
REMARK   60  A    between atoms: _143  and  _144
REMARK   61  A    between atoms: _147  and  _149
REMARK   62  A    between atoms: _149  and  _150
REMARK   63  A    between atoms: _153  and  _155
REMARK   64  A    between atoms: _155  and  _156
REMARK   65  A    between atoms: _155  and  _158
REMARK   66  A    between atoms: _158  and  _159
REMARK   67  A    between atoms: _164  and  _166
REMARK   68  A    between atoms: _166  and  _167
REMARK   69  A    between atoms: _166  and  _169
REMARK   70  A    between atoms: _169  and  _170
REMARK   71  A    between atoms: _173  and  _175
REMARK   72  A    between atoms: _175  and  _176
REMARK   73  A    between atoms: _178  and  _180
REMARK   74  A    between atoms: _180  and  _181
REMARK   75  A    between atoms: _180  and  _183
REMARK   76  A    between atoms: _183  and  _184
REMARK   77  A    between atoms: _184  and  _185
REMARK   78  A    between atoms: _188  and  _190
REMARK   79  A    between atoms: _190  and  _191
REMARK   80  A    between atoms: _190  and  _193
REMARK   81  A    between atoms: _193  and  _194
REMARK   82  A    between atoms: _196  and  _198
REMARK   83  A    between atoms: _198  and  _199
REMARK   84  A    between atoms: _198  and  _201
REMARK   85  A    between atoms: _201  and  _202
REMARK   86  A    between atoms: _205  and  _207
REMARK   87  A    between atoms: _207  and  _208
REMARK   88  A    between atoms: _207  and  _210
REMARK   89  A    between atoms: _210  and  _211
REMARK   90  A    between atoms: _211  and  _212
REMARK   91  A    between atoms: _214  and  _216
REMARK   92  A    between atoms: _216  and  _217
REMARK   93  A    between atoms: _220  and  _222
REMARK   94  A    between atoms: _222  and  _223
REMARK   95  A    between atoms: _226  and  _228
REMARK   96  A    between atoms: _228  and  _229
REMARK   97  A    between atoms: _228  and  _231
REMARK   98  A    between atoms: _231  and  _232
REMARK   99  A    between atoms: _235  and  _237
REMARK  100  A    between atoms: _237  and  _238
REMARK  101  A    between atoms: _241  and  _243
REMARK  102  A    between atoms: _243  and  _244
REMARK  103  A    between atoms: _247  and  _249
REMARK  104  A    between atoms: _249  and  _250
REMARK  105  A    between atoms: _252  and  _254
REMARK  106  A    between atoms: _254  and  _255
REMARK  107  A    between atoms: _254  and  _257
REMARK  108  A    between atoms: _257  and  _258
REMARK  109  A    between atoms: _263  and  _265
REMARK  110  A    between atoms: _265  and  _266
REMARK  111  A    between atoms: _268  and  _270
REMARK  112  A    between atoms: _270  and  _271
REMARK  113  A    between atoms: _274  and  _276
REMARK  114  A    between atoms: _276  and  _277
REMARK  115  A    between atoms: _276  and  _279
REMARK  116  A    between atoms: _279  and  _280
REMARK  117  A    between atoms: _280  and  _281
REMARK  118  A    between atoms: _284  and  _286
REMARK  119  A    between atoms: _286  and  _287
REMARK  120  A    between atoms: _286  and  _289
REMARK  121  A    between atoms: _289  and  _290
REMARK  122  A    between atoms: _293  and  _295
REMARK  123  A    between atoms: _295  and  _296
REMARK  124  A    between atoms: _295  and  _298
REMARK  125  A    between atoms: _298  and  _299
REMARK  126  A    between atoms: _299  and  _300
REMARK  127  A    between atoms: _300  and  _301
REMARK  128  A    between atoms: _310  and  _312
REMARK  129  A    between atoms: _312  and  _313
REMARK  130  A    between atoms: _316  and  _317
REMARK  131  A    between atoms: _322  and  _324
REMARK  132  A    between atoms: _324  and  _325
REMARK  133  A    between atoms: _324  and  _327
REMARK  134  A    between atoms: _327  and  _328
REMARK  135  A    between atoms: _328  and  _329
REMARK  136  A    between atoms: _331  and  _333
REMARK  137  A    between atoms: _333  and  _334
REMARK  138  A    between atoms: _333  and  _336
REMARK  139  A    between atoms: _336  and  _337
REMARK  140  A    between atoms: _337  and  _338
REMARK  141  A    between atoms: _340  and  _342
REMARK  142  A    between atoms: _342  and  _343
REMARK  143  A    between atoms: _342  and  _345
REMARK  144  A    between atoms: _345  and  _346
REMARK  145  A    between atoms: _351  and  _353
REMARK  146  A    between atoms: _353  and  _354
REMARK  147  A    between atoms: _353  and  _356
REMARK  148  A    between atoms: _356  and  _357
REMARK  149  A    between atoms: _360  and  _362
REMARK  150  A    between atoms: _362  and  _363
REMARK  151  A    between atoms: _362  and  _365
REMARK  152  A    between atoms: _365  and  _366
REMARK  153  A    between atoms: _368  and  _370
REMARK  154  A    between atoms: _370  and  _371
REMARK  155  A    between atoms: _370  and  _373
REMARK  156  A    between atoms: _373  and  _374
REMARK  157  A    between atoms: _374  and  _375
REMARK  158  A    between atoms: _375  and  _376
REMARK  159  A    between atoms: _376  and  _377
REMARK  160  A    between atoms: _381  and  _383
REMARK  161  A    between atoms: _383  and  _384
REMARK  162  A    between atoms: _383  and  _386
REMARK  163  A    between atoms: _386  and  _387
REMARK  164  A    between atoms: _390  and  _392
REMARK  165  A    between atoms: _392  and  _393
REMARK  166  A    between atoms: _392  and  _395
REMARK  167  A    between atoms: _395  and  _396
REMARK  168  A    between atoms: _396  and  _397
REMARK  169  A    between atoms: _400  and  _402
REMARK  170  A    between atoms: _402  and  _403
REMARK  171  A    between atoms: _406  and  _408
REMARK  172  A    between atoms: _408  and  _409
REMARK  173  A    between atoms: _408  and  _411
REMARK  174  A    between atoms: _414  and  _416
REMARK  175  A    between atoms: _416  and  _417
REMARK  176  A    between atoms: _416  and  _419
REMARK  177  A    between atoms: _419  and  _420
REMARK  178  A    between atoms: _422  and  _424
REMARK  179  A    between atoms: _424  and  _425
REMARK  180  A    between atoms: _427  and  _429
REMARK  181  A    between atoms: _429  and  _430
REMARK  182  A    between atoms: _429  and  _432
REMARK  183  A    between atoms: _432  and  _433
REMARK  184  A    between atoms: _438  and  _440
REMARK  185  A    between atoms: _440  and  _441
REMARK  186  A    between atoms: _440  and  _443
REMARK  187  A    between atoms: _443  and  _444
REMARK  188  A    between atoms: _449  and  _450
REMARK  189  A    between atoms: _452  and  _454
REMARK  190  A    between atoms: _454  and  _455
REMARK  191  A    between atoms: _454  and  _457
REMARK  192  A    between atoms: _459  and  _461
REMARK  193  A    between atoms: _461  and  _462
REMARK  194  A    between atoms: _461  and  _464
REMARK  195  A    between atoms: _464  and  _465
REMARK  196  A    between atoms: _468  and  _470
REMARK  197  A    between atoms: _470  and  _471
REMARK  198  A    between atoms: _470  and  _473
REMARK  199  A    between atoms: _473  and  _474
REMARK  200  A    between atoms: _477  and  _479
REMARK  201  A    between atoms: _479  and  _480
REMARK  202  A    between atoms: _479  and  _482
REMARK  203  A    between atoms: _482  and  _483
REMARK  204  A    between atoms: _483  and  _484
REMARK  205  A    between atoms: _484  and  _485
REMARK  206  A    between atoms: _485  and  _486
REMARK  207  A    between atoms: _490  and  _492
REMARK  208  A    between atoms: _492  and  _493
REMARK  209  A    between atoms: _492  and  _495
REMARK  210  A    between atoms: _495  and  _496
REMARK  211  A    between atoms: _496  and  _497
REMARK  212  A    between atoms: _497  and  _498
REMARK  213  A    between atoms: _498  and  _499
REMARK  214  A    between atoms: _503  and  _505
REMARK  215  A    between atoms: _505  and  _506
REMARK  216  A    between atoms: _505  and  _508
REMARK  217  A    between atoms: _508  and  _509
REMARK  218  A    between atoms: _509  and  _510
REMARK  219  A    between atoms: _510  and  _511
REMARK  220  A    between atoms: _520  and  _522
REMARK  221  A    between atoms: _522  and  _523
REMARK  222  A    between atoms: _522  and  _525
REMARK  223  A    between atoms: _525  and  _526
REMARK  224  A    between atoms: _529  and  _531
REMARK  225  A    between atoms: _531  and  _532
REMARK  226  A    between atoms: _535  and  _537
REMARK  227  A    between atoms: _537  and  _538
REMARK  228  A    between atoms: _537  and  _540
REMARK  229  A    between atoms: _540  and  _541
REMARK  230  A    between atoms: _541  and  _542
REMARK                            x       y       z     vdW  Elec       q    Type
REMARK                         _______ _______ _______ _____ _____    ______ ____
ROOT
ATOM      1  O   HOH     1       6.648  12.785  51.066  0.00  0.00    +0.000 OA
ENDROOT
TORSDOF 0
REMARK  Name = ../refined-set-2016/3cdb/3cdb_pocket.pdb
REMARK  230 active torsions:
REMARK  status: ('A' for Active; 'I' for Inactive)
REMARK    1  A    between atoms: _1  and  _3
REMARK    2  A    between atoms: _3  and  _4
REMARK    3  A    between atoms: _3  and  _6
REMARK    4  A    between atoms: _6  and  _7
REMARK    5  A    between atoms: _10  and  _12
REMARK    6  A    between atoms: _12  and  _13
REMARK    7  A    between atoms: _12  and  _15
REMARK    8  A    between atoms: _15  and  _16
REMARK    9  A    between atoms: _16  and  _17
REMARK   10  A    between atoms: _20  and  _22
REMARK   11  A    between atoms: _22  and  _23
REMARK   12  A    between atoms: _25  and  _27
REMARK   13  A    between atoms: _27  and  _28
REMARK   14  A    between atoms: _27  and  _30
REMARK   15  A    between atoms: _32  and  _34
REMARK   16  A    between atoms: _34  and  _35
REMARK   17  A    between atoms: _34  and  _37
REMARK   18  A    between atoms: _37  and  _38
REMARK   19  A    between atoms: _41  and  _43
REMARK   20  A    between atoms: _43  and  _44
REMARK   21  A    between atoms: _43  and  _46
REMARK   22  A    between atoms: _49  and  _51
REMARK   23  A    between atoms: _51  and  _52
REMARK   24  A    between atoms: _55  and  _57
REMARK   25  A    between atoms: _57  and  _58
REMARK   26  A    between atoms: _57  and  _60
REMARK   27  A    between atoms: _60  and  _61
REMARK   28  A    between atoms: _63  and  _65
REMARK   29  A    between atoms: _65  and  _66
REMARK   30  A    between atoms: _65  and  _68
REMARK   31  A    between atoms: _68  and  _69
REMARK   32  A    between atoms: _72  and  _74
REMARK   33  A    between atoms: _74  and  _75
REMARK   34  A    between atoms: _74  and  _77
REMARK   35  A    between atoms: _77  and  _78
REMARK   36  A    between atoms: _78  and  _79
REMARK   37  A    between atoms: _79  and  _80
REMARK   38  A    between atoms: _89  and  _91
REMARK   39  A    between atoms: _91  and  _92
REMARK   40  A    between atoms: _91  and  _94
REMARK   41  A    between atoms: _94  and  _95
REMARK   42  A    between atoms: _95  and  _96
REMARK   43  A    between atoms: _96  and  _97
REMARK   44  A    between atoms: _97  and  _98
REMARK   45  A    between atoms: _102  and  _104
REMARK   46  A    between atoms: _104  and  _105
REMARK   47  A    between atoms: _104  and  _107
REMARK   48  A    between atoms: _107  and  _108
REMARK   49  A    between atoms: _113  and  _115
REMARK   50  A    between atoms: _115  and  _116
REMARK   51  A    between atoms: _115  and  _118
REMARK   52  A    between atoms: _118  and  _119
REMARK   53  A    between atoms: _124  and  _126
REMARK   54  A    between atoms: _126  and  _127
REMARK   55  A    between atoms: _130  and  _132
REMARK   56  A    between atoms: _132  and  _133
REMARK   57  A    between atoms: _132  and  _135
REMARK   58  A    between atoms: _135  and  _136
REMARK   59  A    between atoms: _141  and  _143
REMARK   60  A    between atoms: _143  and  _144
REMARK   61  A    between atoms: _147  and  _149
REMARK   62  A    between atoms: _149  and  _150
REMARK   63  A    between atoms: _153  and  _155
REMARK   64  A    between atoms: _155  and  _156
REMARK   65  A    between atoms: _155  and  _158
REMARK   66  A    between atoms: _158  and  _159
REMARK   67  A    between atoms: _164  and  _166
REMARK   68  A    between atoms: _166  and  _167
REMARK   69  A    between atoms: _166  and  _169
REMARK   70  A    between atoms: _169  and  _170
REMARK   71  A    between atoms: _173  and  _175
REMARK   72  A    between atoms: _175  and  _176
REMARK   73  A    between atoms: _178  and  _180
REMARK   74  A    between atoms: _180  and  _181
REMARK   75  A    between atoms: _180  and  _183
REMARK   76  A    between atoms: _183  and  _184
REMARK   77  A    between atoms: _184  and  _185
REMARK   78  A    between atoms: _188  and  _190
REMARK   79  A    between atoms: _190  and  _191
REMARK   80  A    between atoms: _190  and  _193
REMARK   81  A    between atoms: _193  and  _194
REMARK   82  A    between atoms: _196  and  _198
REMARK   83  A    between atoms: _198  and  _199
REMARK   84  A    between atoms: _198  and  _201
REMARK   85  A    between atoms: _201  and  _202
REMARK   86  A    between atoms: _205  and  _207
REMARK   87  A    between atoms: _207  and  _208
REMARK   88  A    between atoms: _207  and  _210
REMARK   89  A    between atoms: _210  and  _211
REMARK   90  A    between atoms: _211  and  _212
REMARK   91  A    between atoms: _214  and  _216
REMARK   92  A    between atoms: _216  and  _217
REMARK   93  A    between atoms: _220  and  _222
REMARK   94  A    between atoms: _222  and  _223
REMARK   95  A    between atoms: _226  and  _228
REMARK   96  A    between atoms: _228  and  _229
REMARK   97  A    between atoms: _228  and  _231
REMARK   98  A    between atoms: _231  and  _232
REMARK   99  A    between atoms: _235  and  _237
REMARK  100  A    between atoms: _237  and  _238
REMARK  101  A    between atoms: _241  and  _243
REMARK  102  A    between atoms: _243  and  _244
REMARK  103  A    between atoms: _247  and  _249
REMARK  104  A    between atoms: _249  and  _250
REMARK  105  A    between atoms: _252  and  _254
REMARK  106  A    between atoms: _254  and  _255
REMARK  107  A    between atoms: _254  and  _257
REMARK  108  A    between atoms: _257  and  _258
REMARK  109  A    between atoms: _263  and  _265
REMARK  110  A    between atoms: _265  and  _266
REMARK  111  A    between atoms: _268  and  _270
REMARK  112  A    between atoms: _270  and  _271
REMARK  113  A    between atoms: _274  and  _276
REMARK  114  A    between atoms: _276  and  _277
REMARK  115  A    between atoms: _276  and  _279
REMARK  116  A    between atoms: _279  and  _280
REMARK  117  A    between atoms: _280  and  _281
REMARK  118  A    between atoms: _284  and  _286
REMARK  119  A    between atoms: _286  and  _287
REMARK  120  A    between atoms: _286  and  _289
REMARK  121  A    between atoms: _289  and  _290
REMARK  122  A    between atoms: _293  and  _295
REMARK  123  A    between atoms: _295  and  _296
REMARK  124  A    between atoms: _295  and  _298
REMARK  125  A    between atoms: _298  and  _299
REMARK  126  A    between atoms: _299  and  _300
REMARK  127  A    between atoms: _300  and  _301
REMARK  128  A    between atoms: _310  and  _312
REMARK  129  A    between atoms: _312  and  _313
REMARK  130  A    between atoms: _316  and  _317
REMARK  131  A    between atoms: _322  and  _324
REMARK  132  A    between atoms: _324  and  _325
REMARK  133  A    between atoms: _324  and  _327
REMARK  134  A    between atoms: _327  and  _328
REMARK  135  A    between atoms: _328  and  _329
REMARK  136  A    between atoms: _331  and  _333
REMARK  137  A    between atoms: _333  and  _334
REMARK  138  A    between atoms: _333  and  _336
REMARK  139  A    between atoms: _336  and  _337
REMARK  140  A    between atoms: _337  and  _338
REMARK  141  A    between atoms: _340  and  _342
REMARK  142  A    between atoms: _342  and  _343
REMARK  143  A    between atoms: _342  and  _345
REMARK  144  A    between atoms: _345  and  _346
REMARK  145  A    between atoms: _351  and  _353
REMARK  146  A    between atoms: _353  and  _354
REMARK  147  A    between atoms: _353  and  _356
REMARK  148  A    between atoms: _356  and  _357
REMARK  149  A    between atoms: _360  and  _362
REMARK  150  A    between atoms: _362  and  _363
REMARK  151  A    between atoms: _362  and  _365
REMARK  152  A    between atoms: _365  and  _366
REMARK  153  A    between atoms: _368  and  _370
REMARK  154  A    between atoms: _370  and  _371
REMARK  155  A    between atoms: _370  and  _373
REMARK  156  A    between atoms: _373  and  _374
REMARK  157  A    between atoms: _374  and  _375
REMARK  158  A    between atoms: _375  and  _376
REMARK  159  A    between atoms: _376  and  _377
REMARK  160  A    between atoms: _381  and  _383
REMARK  161  A    between atoms: _383  and  _384
REMARK  162  A    between atoms: _383  and  _386
REMARK  163  A    between atoms: _386  and  _387
REMARK  164  A    between atoms: _390  and  _392
REMARK  165  A    between atoms: _392  and  _393
REMARK  166  A    between atoms: _392  and  _395
REMARK  167  A    between atoms: _395  and  _396
REMARK  168  A    between atoms: _396  and  _397
REMARK  169  A    between atoms: _400  and  _402
REMARK  170  A    between atoms: _402  and  _403
REMARK  171  A    between atoms: _406  and  _408
REMARK  172  A    between atoms: _408  and  _409
REMARK  173  A    between atoms: _408  and  _411
REMARK  174  A    between atoms: _414  and  _416
REMARK  175  A    between atoms: _416  and  _417
REMARK  176  A    between atoms: _416  and  _419
REMARK  177  A    between atoms: _419  and  _420
REMARK  178  A    between atoms: _422  and  _424
REMARK  179  A    between atoms: _424  and  _425
REMARK  180  A    between atoms: _427  and  _429
REMARK  181  A    between atoms: _429  and  _430
REMARK  182  A    between atoms: _429  and  _432
REMARK  183  A    between atoms: _432  and  _433
REMARK  184  A    between atoms: _438  and  _440
REMARK  185  A    between atoms: _440  and  _441
REMARK  186  A    between atoms: _440  and  _443
REMARK  187  A    between atoms: _443  and  _444
REMARK  188  A    between atoms: _449  and  _450
REMARK  189  A    between atoms: _452  and  _454
REMARK  190  A    between atoms: _454  and  _455
REMARK  191  A    between atoms: _454  and  _457
REMARK  192  A    between atoms: _459  and  _461
REMARK  193  A    between atoms: _461  and  _462
REMARK  194  A    between atoms: _461  and  _464
REMARK  195  A    between atoms: _464  and  _465
REMARK  196  A    between atoms: _468  and  _470
REMARK  197  A    between atoms: _470  and  _471
REMARK  198  A    between atoms: _470  and  _473
REMARK  199  A    between atoms: _473  and  _474
REMARK  200  A    between atoms: _477  and  _479
REMARK  201  A    between atoms: _479  and  _480
REMARK  202  A    between atoms: _479  and  _482
REMARK  203  A    between atoms: _482  and  _483
REMARK  204  A    between atoms: _483  and  _484
REMARK  205  A    between atoms: _484  and  _485
REMARK  206  A    between atoms: _485  and  _486
REMARK  207  A    between atoms: _490  and  _492
REMARK  208  A    between atoms: _492  and  _493
REMARK  209  A    between atoms: _492  and  _495
REMARK  210  A    between atoms: _495  and  _496
REMARK  211  A    between atoms: _496  and  _497
REMARK  212  A    between atoms: _497  and  _498
REMARK  213  A    between atoms: _498  and  _499
REMARK  214  A    between atoms: _503  and  _505
REMARK  215  A    between atoms: _505  and  _506
REMARK  216  A    between atoms: _505  and  _508
REMARK  217  A    between atoms: _508  and  _509
REMARK  218  A    between atoms: _509  and  _510
REMARK  219  A    between atoms: _510  and  _511
REMARK  220  A    between atoms: _520  and  _522
REMARK  221  A    between atoms: _522  and  _523
REMARK  222  A    between atoms: _522  and  _525
REMARK  223  A    between atoms: _525  and  _526
REMARK  224  A    between atoms: _529  and  _531
REMARK  225  A    between atoms: _531  and  _532
REMARK  226  A    between atoms: _535  and  _537
REMARK  227  A    between atoms: _537  and  _538
REMARK  228  A    between atoms: _537  and  _540
REMARK  229  A    between atoms: _540  and  _541
REMARK  230  A    between atoms: _541  and  _542
REMARK                            x       y       z     vdW  Elec       q    Type
REMARK                         _______ _______ _______ _____ _____    ______ ____
ROOT
ATOM      1  O   HOH     1       7.519   0.889  44.806  0.00  0.00    +0.000 OA
ENDROOT
TORSDOF 0
REMARK  Name = ../refined-set-2016/3cdb/3cdb_pocket.pdb
REMARK  230 active torsions:
REMARK  status: ('A' for Active; 'I' for Inactive)
REMARK    1  A    between atoms: _1  and  _3
REMARK    2  A    between atoms: _3  and  _4
REMARK    3  A    between atoms: _3  and  _6
REMARK    4  A    between atoms: _6  and  _7
REMARK    5  A    between atoms: _10  and  _12
REMARK    6  A    between atoms: _12  and  _13
REMARK    7  A    between atoms: _12  and  _15
REMARK    8  A    between atoms: _15  and  _16
REMARK    9  A    between atoms: _16  and  _17
REMARK   10  A    between atoms: _20  and  _22
REMARK   11  A    between atoms: _22  and  _23
REMARK   12  A    between atoms: _25  and  _27
REMARK   13  A    between atoms: _27  and  _28
REMARK   14  A    between atoms: _27  and  _30
REMARK   15  A    between atoms: _32  and  _34
REMARK   16  A    between atoms: _34  and  _35
REMARK   17  A    between atoms: _34  and  _37
REMARK   18  A    between atoms: _37  and  _38
REMARK   19  A    between atoms: _41  and  _43
REMARK   20  A    between atoms: _43  and  _44
REMARK   21  A    between atoms: _43  and  _46
REMARK   22  A    between atoms: _49  and  _51
REMARK   23  A    between atoms: _51  and  _52
REMARK   24  A    between atoms: _55  and  _57
REMARK   25  A    between atoms: _57  and  _58
REMARK   26  A    between atoms: _57  and  _60
REMARK   27  A    between atoms: _60  and  _61
REMARK   28  A    between atoms: _63  and  _65
REMARK   29  A    between atoms: _65  and  _66
REMARK   30  A    between atoms: _65  and  _68
REMARK   31  A    between atoms: _68  and  _69
REMARK   32  A    between atoms: _72  and  _74
REMARK   33  A    between atoms: _74  and  _75
REMARK   34  A    between atoms: _74  and  _77
REMARK   35  A    between atoms: _77  and  _78
REMARK   36  A    between atoms: _78  and  _79
REMARK   37  A    between atoms: _79  and  _80
REMARK   38  A    between atoms: _89  and  _91
REMARK   39  A    between atoms: _91  and  _92
REMARK   40  A    between atoms: _91  and  _94
REMARK   41  A    between atoms: _94  and  _95
REMARK   42  A    between atoms: _95  and  _96
REMARK   43  A    between atoms: _96  and  _97
REMARK   44  A    between atoms: _97  and  _98
REMARK   45  A    between atoms: _102  and  _104
REMARK   46  A    between atoms: _104  and  _105
REMARK   47  A    between atoms: _104  and  _107
REMARK   48  A    between atoms: _107  and  _108
REMARK   49  A    between atoms: _113  and  _115
REMARK   50  A    between atoms: _115  and  _116
REMARK   51  A    between atoms: _115  and  _118
REMARK   52  A    between atoms: _118  and  _119
REMARK   53  A    between atoms: _124  and  _126
REMARK   54  A    between atoms: _126  and  _127
REMARK   55  A    between atoms: _130  and  _132
REMARK   56  A    between atoms: _132  and  _133
REMARK   57  A    between atoms: _132  and  _135
REMARK   58  A    between atoms: _135  and  _136
REMARK   59  A    between atoms: _141  and  _143
REMARK   60  A    between atoms: _143  and  _144
REMARK   61  A    between atoms: _147  and  _149
REMARK   62  A    between atoms: _149  and  _150
REMARK   63  A    between atoms: _153  and  _155
REMARK   64  A    between atoms: _155  and  _156
REMARK   65  A    between atoms: _155  and  _158
REMARK   66  A    between atoms: _158  and  _159
REMARK   67  A    between atoms: _164  and  _166
REMARK   68  A    between atoms: _166  and  _167
REMARK   69  A    between atoms: _166  and  _169
REMARK   70  A    between atoms: _169  and  _170
REMARK   71  A    between atoms: _173  and  _175
REMARK   72  A    between atoms: _175  and  _176
REMARK   73  A    between atoms: _178  and  _180
REMARK   74  A    between atoms: _180  and  _181
REMARK   75  A    between atoms: _180  and  _183
REMARK   76  A    between atoms: _183  and  _184
REMARK   77  A    between atoms: _184  and  _185
REMARK   78  A    between atoms: _188  and  _190
REMARK   79  A    between atoms: _190  and  _191
REMARK   80  A    between atoms: _190  and  _193
REMARK   81  A    between atoms: _193  and  _194
REMARK   82  A    between atoms: _196  and  _198
REMARK   83  A    between atoms: _198  and  _199
REMARK   84  A    between atoms: _198  and  _201
REMARK   85  A    between atoms: _201  and  _202
REMARK   86  A    between atoms: _205  and  _207
REMARK   87  A    between atoms: _207  and  _208
REMARK   88  A    between atoms: _207  and  _210
REMARK   89  A    between atoms: _210  and  _211
REMARK   90  A    between atoms: _211  and  _212
REMARK   91  A    between atoms: _214  and  _216
REMARK   92  A    between atoms: _216  and  _217
REMARK   93  A    between atoms: _220  and  _222
REMARK   94  A    between atoms: _222  and  _223
REMARK   95  A    between atoms: _226  and  _228
REMARK   96  A    between atoms: _228  and  _229
REMARK   97  A    between atoms: _228  and  _231
REMARK   98  A    between atoms: _231  and  _232
REMARK   99  A    between atoms: _235  and  _237
REMARK  100  A    between atoms: _237  and  _238
REMARK  101  A    between atoms: _241  and  _243
REMARK  102  A    between atoms: _243  and  _244
REMARK  103  A    between atoms: _247  and  _249
REMARK  104  A    between atoms: _249  and  _250
REMARK  105  A    between atoms: _252  and  _254
REMARK  106  A    between atoms: _254  and  _255
REMARK  107  A    between atoms: _254  and  _257
REMARK  108  A    between atoms: _257  and  _258
REMARK  109  A    between atoms: _263  and  _265
REMARK  110  A    between atoms: _265  and  _266
REMARK  111  A    between atoms: _268  and  _270
REMARK  112  A    between atoms: _270  and  _271
REMARK  113  A    between atoms: _274  and  _276
REMARK  114  A    between atoms: _276  and  _277
REMARK  115  A    between atoms: _276  and  _279
REMARK  116  A    between atoms: _279  and  _280
REMARK  117  A    between atoms: _280  and  _281
REMARK  118  A    between atoms: _284  and  _286
REMARK  119  A    between atoms: _286  and  _287
REMARK  120  A    between atoms: _286  and  _289
REMARK  121  A    between atoms: _289  and  _290
REMARK  122  A    between atoms: _293  and  _295
REMARK  123  A    between atoms: _295  and  _296
REMARK  124  A    between atoms: _295  and  _298
REMARK  125  A    between atoms: _298  and  _299
REMARK  126  A    between atoms: _299  and  _300
REMARK  127  A    between atoms: _300  and  _301
REMARK  128  A    between atoms: _310  and  _312
REMARK  129  A    between atoms: _312  and  _313
REMARK  130  A    between atoms: _316  and  _317
REMARK  131  A    between atoms: _322  and  _324
REMARK  132  A    between atoms: _324  and  _325
REMARK  133  A    between atoms: _324  and  _327
REMARK  134  A    between atoms: _327  and  _328
REMARK  135  A    between atoms: _328  and  _329
REMARK  136  A    between atoms: _331  and  _333
REMARK  137  A    between atoms: _333  and  _334
REMARK  138  A    between atoms: _333  and  _336
REMARK  139  A    between atoms: _336  and  _337
REMARK  140  A    between atoms: _337  and  _338
REMARK  141  A    between atoms: _340  and  _342
REMARK  142  A    between atoms: _342  and  _343
REMARK  143  A    between atoms: _342  and  _345
REMARK  144  A    between atoms: _345  and  _346
REMARK  145  A    between atoms: _351  and  _353
REMARK  146  A    between atoms: _353  and  _354
REMARK  147  A    between atoms: _353  and  _356
REMARK  148  A    between atoms: _356  and  _357
REMARK  149  A    between atoms: _360  and  _362
REMARK  150  A    between atoms: _362  and  _363
REMARK  151  A    between atoms: _362  and  _365
REMARK  152  A    between atoms: _365  and  _366
REMARK  153  A    between atoms: _368  and  _370
REMARK  154  A    between atoms: _370  and  _371
REMARK  155  A    between atoms: _370  and  _373
REMARK  156  A    between atoms: _373  and  _374
REMARK  157  A    between atoms: _374  and  _375
REMARK  158  A    between atoms: _375  and  _376
REMARK  159  A    between atoms: _376  and  _377
REMARK  160  A    between atoms: _381  and  _383
REMARK  161  A    between atoms: _383  and  _384
REMARK  162  A    between atoms: _383  and  _386
REMARK  163  A    between atoms: _386  and  _387
REMARK  164  A    between atoms: _390  and  _392
REMARK  165  A    between atoms: _392  and  _393
REMARK  166  A    between atoms: _392  and  _395
REMARK  167  A    between atoms: _395  and  _396
REMARK  168  A    between atoms: _396  and  _397
REMARK  169  A    between atoms: _400  and  _402
REMARK  170  A    between atoms: _402  and  _403
REMARK  171  A    between atoms: _406  and  _408
REMARK  172  A    between atoms: _408  and  _409
REMARK  173  A    between atoms: _408  and  _411
REMARK  174  A    between atoms: _414  and  _416
REMARK  175  A    between atoms: _416  and  _417
REMARK  176  A    between atoms: _416  and  _419
REMARK  177  A    between atoms: _419  and  _420
REMARK  178  A    between atoms: _422  and  _424
REMARK  179  A    between atoms: _424  and  _425
REMARK  180  A    between atoms: _427  and  _429
REMARK  181  A    between atoms: _429  and  _430
REMARK  182  A    between atoms: _429  and  _432
REMARK  183  A    between atoms: _432  and  _433
REMARK  184  A    between atoms: _438  and  _440
REMARK  185  A    between atoms: _440  and  _441
REMARK  186  A    between atoms: _440  and  _443
REMARK  187  A    between atoms: _443  and  _444
REMARK  188  A    between atoms: _449  and  _450
REMARK  189  A    between atoms: _452  and  _454
REMARK  190  A    between atoms: _454  and  _455
REMARK  191  A    between atoms: _454  and  _457
REMARK  192  A    between atoms: _459  and  _461
REMARK  193  A    between atoms: _461  and  _462
REMARK  194  A    between atoms: _461  and  _464
REMARK  195  A    between atoms: _464  and  _465
REMARK  196  A    between atoms: _468  and  _470
REMARK  197  A    between atoms: _470  and  _471
REMARK  198  A    between atoms: _470  and  _473
REMARK  199  A    between atoms: _473  and  _474
REMARK  200  A    between atoms: _477  and  _479
REMARK  201  A    between atoms: _479  and  _480
REMARK  202  A    between atoms: _479  and  _482
REMARK  203  A    between atoms: _482  and  _483
REMARK  204  A    between atoms: _483  and  _484
REMARK  205  A    between atoms: _484  and  _485
REMARK  206  A    between atoms: _485  and  _486
REMARK  207  A    between atoms: _490  and  _492
REMARK  208  A    between atoms: _492  and  _493
REMARK  209  A    between atoms: _492  and  _495
REMARK  210  A    between atoms: _495  and  _496
REMARK  211  A    between atoms: _496  and  _497
REMARK  212  A    between atoms: _497  and  _498
REMARK  213  A    between atoms: _498  and  _499
REMARK  214  A    between atoms: _503  and  _505
REMARK  215  A    between atoms: _505  and  _506
REMARK  216  A    between atoms: _505  and  _508
REMARK  217  A    between atoms: _508  and  _509
REMARK  218  A    between atoms: _509  and  _510
REMARK  219  A    between atoms: _510  and  _511
REMARK  220  A    between atoms: _520  and  _522
REMARK  221  A    between atoms: _522  and  _523
REMARK  222  A    between atoms: _522  and  _525
REMARK  223  A    between atoms: _525  and  _526
REMARK  224  A    between atoms: _529  and  _531
REMARK  225  A    between atoms: _531  and  _532
REMARK  226  A    between atoms: _535  and  _537
REMARK  227  A    between atoms: _537  and  _538
REMARK  228  A    between atoms: _537  and  _540
REMARK  229  A    between atoms: _540  and  _541
REMARK  230  A    between atoms: _541  and  _542
REMARK                            x       y       z     vdW  Elec       q    Type
REMARK                         _______ _______ _______ _____ _____    ______ ____
ROOT
ATOM      1  O   HOH     1       5.957   1.484  42.714  0.00  0.00    +0.000 OA
ENDROOT
TORSDOF 0
