REMARK  Name = ../refined-set-2016/2o4r/2o4r_pocket.pdb
REMARK  293 active torsions:
REMARK  status: ('A' for Active; 'I' for Inactive)
REMARK    1  A    between atoms: _1  and  _3
REMARK    2  A    between atoms: _3  and  _4
REMARK    3  A    between atoms: _3  and  _6
REMARK    4  A    between atoms: _6  and  _7
REMARK    5  A    between atoms: _10  and  _12
REMARK    6  A    between atoms: _12  and  _13
REMARK    7  A    between atoms: _12  and  _15
REMARK    8  A    between atoms: _15  and  _16
REMARK    9  A    between atoms: _21  and  _22
REMARK   10  A    between atoms: _24  and  _26
REMARK   11  A    between atoms: _26  and  _27
REMARK   12  A    between atoms: _26  and  _29
REMARK   13  A    between atoms: _29  and  _30
REMARK   14  A    between atoms: _34  and  _35
REMARK   15  A    between atoms: _40  and  _42
REMARK   16  A    between atoms: _42  and  _43
REMARK   17  A    between atoms: _42  and  _45
REMARK   18  A    between atoms: _45  and  _46
REMARK   19  A    between atoms: _51  and  _52
REMARK   20  A    between atoms: _54  and  _56
REMARK   21  A    between atoms: _56  and  _57
REMARK   22  A    between atoms: _56  and  _59
REMARK   23  A    between atoms: _59  and  _60
REMARK   24  A    between atoms: _66  and  _68
REMARK   25  A    between atoms: _68  and  _69
REMARK   26  A    between atoms: _68  and  _71
REMARK   27  A    between atoms: _71  and  _72
REMARK   28  A    between atoms: _78  and  _80
REMARK   29  A    between atoms: _80  and  _81
REMARK   30  A    between atoms: _80  and  _83
REMARK   31  A    between atoms: _83  and  _84
REMARK   32  A    between atoms: _84  and  _85
REMARK   33  A    between atoms: _85  and  _86
REMARK   34  A    between atoms: _95  and  _97
REMARK   35  A    between atoms: _97  and  _98
REMARK   36  A    between atoms: _97  and  _100
REMARK   37  A    between atoms: _100  and  _101
REMARK   38  A    between atoms: _101  and  _102
REMARK   39  A    between atoms: _104  and  _106
REMARK   40  A    between atoms: _106  and  _107
REMARK   41  A    between atoms: _106  and  _109
REMARK   42  A    between atoms: _109  and  _110
REMARK   43  A    between atoms: _114  and  _115
REMARK   44  A    between atoms: _120  and  _122
REMARK   45  A    between atoms: _122  and  _123
REMARK   46  A    between atoms: _122  and  _125
REMARK   47  A    between atoms: _125  and  _126
REMARK   48  A    between atoms: _131  and  _133
REMARK   49  A    between atoms: _133  and  _134
REMARK   50  A    between atoms: _133  and  _136
REMARK   51  A    between atoms: _136  and  _137
REMARK   52  A    between atoms: _140  and  _142
REMARK   53  A    between atoms: _142  and  _143
REMARK   54  A    between atoms: _146  and  _148
REMARK   55  A    between atoms: _148  and  _149
REMARK   56  A    between atoms: _148  and  _151
REMARK   57  A    between atoms: _151  and  _152
REMARK   58  A    between atoms: _155  and  _157
REMARK   59  A    between atoms: _157  and  _158
REMARK   60  A    between atoms: _157  and  _160
REMARK   61  A    between atoms: _160  and  _161
REMARK   62  A    between atoms: _164  and  _166
REMARK   63  A    between atoms: _166  and  _167
REMARK   64  A    between atoms: _166  and  _169
REMARK   65  A    between atoms: _172  and  _174
REMARK   66  A    between atoms: _174  and  _175
REMARK   67  A    between atoms: _174  and  _177
REMARK   68  A    between atoms: _177  and  _178
REMARK   69  A    between atoms: _180  and  _182
REMARK   70  A    between atoms: _182  and  _183
REMARK   71  A    between atoms: _182  and  _185
REMARK   72  A    between atoms: _185  and  _186
REMARK   73  A    between atoms: _191  and  _192
REMARK   74  A    between atoms: _194  and  _196
REMARK   75  A    between atoms: _196  and  _197
REMARK   76  A    between atoms: _196  and  _199
REMARK   77  A    between atoms: _199  and  _200
REMARK   78  A    between atoms: _202  and  _204
REMARK   79  A    between atoms: _204  and  _205
REMARK   80  A    between atoms: _204  and  _207
REMARK   81  A    between atoms: _207  and  _208
REMARK   82  A    between atoms: _211  and  _213
REMARK   83  A    between atoms: _213  and  _214
REMARK   84  A    between atoms: _213  and  _216
REMARK   85  A    between atoms: _216  and  _217
REMARK   86  A    between atoms: _217  and  _218
REMARK   87  A    between atoms: _218  and  _219
REMARK   88  A    between atoms: _219  and  _220
REMARK   89  A    between atoms: _224  and  _226
REMARK   90  A    between atoms: _226  and  _227
REMARK   91  A    between atoms: _226  and  _229
REMARK   92  A    between atoms: _232  and  _234
REMARK   93  A    between atoms: _234  and  _235
REMARK   94  A    between atoms: _238  and  _240
REMARK   95  A    between atoms: _240  and  _241
REMARK   96  A    between atoms: _240  and  _243
REMARK   97  A    between atoms: _243  and  _244
REMARK   98  A    between atoms: _247  and  _249
REMARK   99  A    between atoms: _249  and  _250
REMARK  100  A    between atoms: _249  and  _252
REMARK  101  A    between atoms: _252  and  _253
REMARK  102  A    between atoms: _253  and  _254
REMARK  103  A    between atoms: _257  and  _259
REMARK  104  A    between atoms: _259  and  _260
REMARK  105  A    between atoms: _259  and  _262
REMARK  106  A    between atoms: _265  and  _267
REMARK  107  A    between atoms: _267  and  _268
REMARK  108  A    between atoms: _267  and  _270
REMARK  109  A    between atoms: _270  and  _271
REMARK  110  A    between atoms: _274  and  _276
REMARK  111  A    between atoms: _276  and  _277
REMARK  112  A    between atoms: _276  and  _279
REMARK  113  A    between atoms: _279  and  _280
REMARK  114  A    between atoms: _280  and  _281
REMARK  115  A    between atoms: _283  and  _285
REMARK  116  A    between atoms: _285  and  _286
REMARK  117  A    between atoms: _285  and  _288
REMARK  118  A    between atoms: _288  and  _289
REMARK  119  A    between atoms: _292  and  _294
REMARK  120  A    between atoms: _294  and  _295
REMARK  121  A    between atoms: _294  and  _297
REMARK  122  A    between atoms: _297  and  _298
REMARK  123  A    between atoms: _298  and  _299
REMARK  124  A    between atoms: _299  and  _300
REMARK  125  A    between atoms: _309  and  _311
REMARK  126  A    between atoms: _311  and  _312
REMARK  127  A    between atoms: _311  and  _314
REMARK  128  A    between atoms: _314  and  _315
REMARK  129  A    between atoms: _317  and  _319
REMARK  130  A    between atoms: _319  and  _320
REMARK  131  A    between atoms: _319  and  _322
REMARK  132  A    between atoms: _322  and  _323
REMARK  133  A    between atoms: _328  and  _330
REMARK  134  A    between atoms: _330  and  _331
REMARK  135  A    between atoms: _330  and  _333
REMARK  136  A    between atoms: _333  and  _334
REMARK  137  A    between atoms: _334  and  _335
REMARK  138  A    between atoms: _340  and  _342
REMARK  139  A    between atoms: _342  and  _343
REMARK  140  A    between atoms: _342  and  _345
REMARK  141  A    between atoms: _345  and  _346
REMARK  142  A    between atoms: _348  and  _350
REMARK  143  A    between atoms: _350  and  _351
REMARK  144  A    between atoms: _350  and  _353
REMARK  145  A    between atoms: _353  and  _354
REMARK  146  A    between atoms: _360  and  _362
REMARK  147  A    between atoms: _362  and  _363
REMARK  148  A    between atoms: _362  and  _365
REMARK  149  A    between atoms: _365  and  _366
REMARK  150  A    between atoms: _368  and  _370
REMARK  151  A    between atoms: _370  and  _371
REMARK  152  A    between atoms: _370  and  _373
REMARK  153  A    between atoms: _373  and  _374
REMARK  154  A    between atoms: _384  and  _386
REMARK  155  A    between atoms: _386  and  _387
REMARK  156  A    between atoms: _386  and  _389
REMARK  157  A    between atoms: _389  and  _390
REMARK  158  A    between atoms: _393  and  _395
REMARK  159  A    between atoms: _395  and  _396
REMARK  160  A    between atoms: _395  and  _398
REMARK  161  A    between atoms: _400  and  _402
REMARK  162  A    between atoms: _402  and  _403
REMARK  163  A    between atoms: _402  and  _405
REMARK  164  A    between atoms: _405  and  _406
REMARK  165  A    between atoms: _411  and  _412
REMARK  166  A    between atoms: _414  and  _416
REMARK  167  A    between atoms: _416  and  _417
REMARK  168  A    between atoms: _416  and  _419
REMARK  169  A    between atoms: _419  and  _420
REMARK  170  A    between atoms: _420  and  _421
REMARK  171  A    between atoms: _421  and  _422
REMARK  172  A    between atoms: _422  and  _423
REMARK  173  A    between atoms: _427  and  _429
REMARK  174  A    between atoms: _429  and  _430
REMARK  175  A    between atoms: _429  and  _432
REMARK  176  A    between atoms: _432  and  _433
REMARK  177  A    between atoms: _438  and  _439
REMARK  178  A    between atoms: _441  and  _443
REMARK  179  A    between atoms: _443  and  _444
REMARK  180  A    between atoms: _443  and  _446
REMARK  181  A    between atoms: _446  and  _447
REMARK  182  A    between atoms: _450  and  _452
REMARK  183  A    between atoms: _452  and  _453
REMARK  184  A    between atoms: _452  and  _455
REMARK  185  A    between atoms: _458  and  _460
REMARK  186  A    between atoms: _460  and  _461
REMARK  187  A    between atoms: _460  and  _463
REMARK  188  A    between atoms: _463  and  _464
REMARK  189  A    between atoms: _467  and  _469
REMARK  190  A    between atoms: _469  and  _470
REMARK  191  A    between atoms: _469  and  _472
REMARK  192  A    between atoms: _475  and  _477
REMARK  193  A    between atoms: _477  and  _478
REMARK  194  A    between atoms: _477  and  _480
REMARK  195  A    between atoms: _480  and  _481
REMARK  196  A    between atoms: _483  and  _485
REMARK  197  A    between atoms: _485  and  _486
REMARK  198  A    between atoms: _485  and  _488
REMARK  199  A    between atoms: _488  and  _489
REMARK  200  A    between atoms: _489  and  _490
REMARK  201  A    between atoms: _490  and  _491
REMARK  202  A    between atoms: _491  and  _492
REMARK  203  A    between atoms: _496  and  _498
REMARK  204  A    between atoms: _498  and  _499
REMARK  205  A    between atoms: _502  and  _504
REMARK  206  A    between atoms: _504  and  _505
REMARK  207  A    between atoms: _507  and  _509
REMARK  208  A    between atoms: _509  and  _510
REMARK  209  A    between atoms: _509  and  _512
REMARK  210  A    between atoms: _512  and  _513
REMARK  211  A    between atoms: _518  and  _520
REMARK  212  A    between atoms: _520  and  _521
REMARK  213  A    between atoms: _520  and  _523
REMARK  214  A    between atoms: _523  and  _524
REMARK  215  A    between atoms: _527  and  _529
REMARK  216  A    between atoms: _529  and  _530
REMARK  217  A    between atoms: _529  and  _532
REMARK  218  A    between atoms: _532  and  _533
REMARK  219  A    between atoms: _536  and  _538
REMARK  220  A    between atoms: _538  and  _539
REMARK  221  A    between atoms: _538  and  _541
REMARK  222  A    between atoms: _541  and  _542
REMARK  223  A    between atoms: _545  and  _547
REMARK  224  A    between atoms: _547  and  _548
REMARK  225  A    between atoms: _547  and  _550
REMARK  226  A    between atoms: _550  and  _551
REMARK  227  A    between atoms: _554  and  _556
REMARK  228  A    between atoms: _556  and  _557
REMARK  229  A    between atoms: _556  and  _559
REMARK  230  A    between atoms: _559  and  _560
REMARK  231  A    between atoms: _560  and  _561
REMARK  232  A    between atoms: _566  and  _568
REMARK  233  A    between atoms: _568  and  _569
REMARK  234  A    between atoms: _568  and  _571
REMARK  235  A    between atoms: _571  and  _572
REMARK  236  A    between atoms: _577  and  _579
REMARK  237  A    between atoms: _579  and  _580
REMARK  238  A    between atoms: _579  and  _582
REMARK  239  A    between atoms: _582  and  _583
REMARK  240  A    between atoms: _585  and  _587
REMARK  241  A    between atoms: _587  and  _588
REMARK  242  A    between atoms: _587  and  _590
REMARK  243  A    between atoms: _590  and  _591
REMARK  244  A    between atoms: _591  and  _592
REMARK  245  A    between atoms: _597  and  _599
REMARK  246  A    between atoms: _599  and  _600
REMARK  247  A    between atoms: _599  and  _602
REMARK  248  A    between atoms: _602  and  _603
REMARK  249  A    between atoms: _608  and  _609
REMARK  250  A    between atoms: _611  and  _613
REMARK  251  A    between atoms: _613  and  _614
REMARK  252  A    between atoms: _613  and  _616
REMARK  253  A    between atoms: _616  and  _617
REMARK  254  A    between atoms: _617  and  _618
REMARK  255  A    between atoms: _618  and  _619
REMARK  256  A    between atoms: _628  and  _630
REMARK  257  A    between atoms: _630  and  _631
REMARK  258  A    between atoms: _630  and  _633
REMARK  259  A    between atoms: _633  and  _634
REMARK  260  A    between atoms: _637  and  _639
REMARK  261  A    between atoms: _639  and  _640
REMARK  262  A    between atoms: _639  and  _642
REMARK  263  A    between atoms: _642  and  _643
REMARK  264  A    between atoms: _645  and  _647
REMARK  265  A    between atoms: _647  and  _648
REMARK  266  A    between atoms: _647  and  _650
REMARK  267  A    between atoms: _650  and  _651
REMARK  268  A    between atoms: _656  and  _658
REMARK  269  A    between atoms: _658  and  _659
REMARK  270  A    between atoms: _658  and  _661
REMARK  271  A    between atoms: _661  and  _662
REMARK  272  A    between atoms: _662  and  _663
REMARK  273  A    between atoms: _663  and  _664
REMARK  274  A    between atoms: _664  and  _665
REMARK  275  A    between atoms: _669  and  _671
REMARK  276  A    between atoms: _671  and  _672
REMARK  277  A    between atoms: _671  and  _674
REMARK  278  A    between atoms: _674  and  _675
REMARK  279  A    between atoms: _678  and  _680
REMARK  280  A    between atoms: _680  and  _681
REMARK  281  A    between atoms: _680  and  _683
REMARK  282  A    between atoms: _683  and  _684
REMARK  283  A    between atoms: _687  and  _689
REMARK  284  A    between atoms: _689  and  _690
REMARK  285  A    between atoms: _689  and  _692
REMARK  286  A    between atoms: _695  and  _697
REMARK  287  A    between atoms: _697  and  _698
REMARK  288  A    between atoms: _697  and  _700
REMARK  289  A    between atoms: _700  and  _701
REMARK  290  A    between atoms: _704  and  _706
REMARK  291  A    between atoms: _706  and  _707
REMARK  292  A    between atoms: _706  and  _709
REMARK  293  A    between atoms: _709  and  _710
REMARK                            x       y       z     vdW  Elec       q    Type
REMARK                         _______ _______ _______ _____ _____    ______ ____
ROOT
ATOM      1  CA  TYR A   2      59.161   7.349   9.185  0.00  0.00    +0.153 C 
ENDROOT
BRANCH   1   3
ATOM      2  C   THR A   1      60.106   5.455  10.418  0.00  0.00    +0.241 C 
ATOM      3  N   TYR A   2      59.351   6.544  10.409  0.00  0.00    -0.297 N 
ATOM      4  H   TYR A   2      58.879   6.840  11.287  0.00  0.00    +0.150 HD
ATOM      5  O   THR A   1      60.668   5.047   9.410  0.00  0.00    -0.274 OA
BRANCH   2   6
ATOM      6  CA  THR A   1      60.287   4.711  11.749  0.00  0.00    +0.172 C 
BRANCH   6   7
ATOM      7  N   THR A   1      59.552   5.288  12.904  0.00  0.00    -0.236 NA
ATOM      8  H   THR A   1      58.523   5.417  12.821  0.00  0.00    +0.142 HD
ENDBRANCH   6   7
BRANCH   6   9
ATOM      9  CB  THR A   1      59.903   3.215  11.515  0.00  0.00    +0.135 C 
ATOM     10  CG2 THR A   1      60.342   2.335  12.699  0.00  0.00    +0.034 C 
BRANCH   9  11
ATOM     11  OG1 THR A   1      58.487   3.119  11.357  0.00  0.00    -0.383 OA
ATOM     12  HG1 THR A   1      58.041   3.455  12.175  0.00  0.00    +0.210 HD
ENDBRANCH   9  11
ENDBRANCH   6   9
ENDBRANCH   2   6
ENDBRANCH   1   3
BRANCH   1  13
ATOM     13  C   TYR A   2      59.351   8.818   9.528  0.00  0.00    +0.241 C 
ATOM     14  O   TYR A   2      58.486   9.415  10.172  0.00  0.00    -0.273 OA
ATOM     15  N   ASP A   3      60.478   9.392   9.103  0.00  0.00    -0.297 N 
ATOM     16  H   ASP A   3      61.141   8.823   8.539  0.00  0.00    +0.150 HD
BRANCH  15  17
ATOM     17  CA  ASP A   3      60.826  10.787   9.393  0.00  0.00    +0.160 C 
BRANCH  17  18
ATOM     18  C   ASP A   3      60.365  11.638   8.236  0.00  0.00    +0.244 C 
ATOM     19  N   PRO A   4      59.284  12.414   8.461  0.00  0.00    -0.273 N 
ATOM     20  CD  PRO A   4      58.617  12.593   9.770  0.00  0.00    +0.094 C 
ATOM     21  CG  PRO A   4      57.519  13.615   9.478  0.00  0.00    +0.024 C 
ATOM     22  CB  PRO A   4      57.313  13.647   8.033  0.00  0.00    +0.030 C 
ATOM     23  CA  PRO A   4      58.641  13.177   7.401  0.00  0.00    +0.140 C 
ATOM     24  O   ASP A   3      60.982  11.616   7.160  0.00  0.00    -0.273 OA
BRANCH  23  25
ATOM     25  C   PRO A   4      59.497  14.349   6.957  0.00  0.00    +0.227 C 
ATOM     26  O   PRO A   4      59.168  15.002   5.967  0.00  0.00    -0.286 OA
ENDBRANCH  23  25
ENDBRANCH  17  18
BRANCH  17  27
ATOM     27  CB  ASP A   3      62.337  10.937   9.591  0.00  0.00    +0.143 C 
BRANCH  27  28
ATOM     28  CG  ASP A   3      62.791  12.389   9.728  0.00  0.00    +0.367 C 
ATOM     29  OD2 ASP A   3      61.968  13.345   9.844  0.00  0.00    -0.246 OA
ATOM     30  OD1 ASP A   3      64.009  12.573   9.733  0.00  0.00    -0.246 OA
ENDBRANCH  27  28
ENDBRANCH  17  27
ENDBRANCH  15  17
ENDBRANCH   1  13
BRANCH   1  31
ATOM     31  CB  TYR A   2      57.774   7.129   8.530  0.00  0.00    +0.055 C 
BRANCH  31  32
ATOM     32  CG  TYR A   2      57.682   7.746   7.131  0.00  0.00    -0.020 A 
ATOM     33  CD2 TYR A   2      57.517   9.132   6.942  0.00  0.00    -0.001 A 
ATOM     34  CE2 TYR A   2      57.442   9.683   5.633  0.00  0.00    +0.036 A 
ATOM     35  CZ  TYR A   2      57.555   8.834   4.537  0.00  0.00    +0.134 A 
ATOM     36  CE1 TYR A   2      57.714   7.475   4.722  0.00  0.00    +0.036 A 
ATOM     37  CD1 TYR A   2      57.761   6.935   5.989  0.00  0.00    -0.001 A 
BRANCH  35  38
ATOM     38  OH  TYR A   2      57.510   9.306   3.237  0.00  0.00    -0.506 OA
ATOM     39  HH  TYR A   2      57.394  10.289   3.248  0.00  0.00    +0.292 HD
ENDBRANCH  35  38
ENDBRANCH  31  32
ENDBRANCH   1  31
TORSDOF 14
REMARK  Name = ../refined-set-2016/2o4r/2o4r_pocket.pdb
REMARK  293 active torsions:
REMARK  status: ('A' for Active; 'I' for Inactive)
REMARK    1  A    between atoms: _1  and  _3
REMARK    2  A    between atoms: _3  and  _4
REMARK    3  A    between atoms: _3  and  _6
REMARK    4  A    between atoms: _6  and  _7
REMARK    5  A    between atoms: _10  and  _12
REMARK    6  A    between atoms: _12  and  _13
REMARK    7  A    between atoms: _12  and  _15
REMARK    8  A    between atoms: _15  and  _16
REMARK    9  A    between atoms: _21  and  _22
REMARK   10  A    between atoms: _24  and  _26
REMARK   11  A    between atoms: _26  and  _27
REMARK   12  A    between atoms: _26  and  _29
REMARK   13  A    between atoms: _29  and  _30
REMARK   14  A    between atoms: _34  and  _35
REMARK   15  A    between atoms: _40  and  _42
REMARK   16  A    between atoms: _42  and  _43
REMARK   17  A    between atoms: _42  and  _45
REMARK   18  A    between atoms: _45  and  _46
REMARK   19  A    between atoms: _51  and  _52
REMARK   20  A    between atoms: _54  and  _56
REMARK   21  A    between atoms: _56  and  _57
REMARK   22  A    between atoms: _56  and  _59
REMARK   23  A    between atoms: _59  and  _60
REMARK   24  A    between atoms: _66  and  _68
REMARK   25  A    between atoms: _68  and  _69
REMARK   26  A    between atoms: _68  and  _71
REMARK   27  A    between atoms: _71  and  _72
REMARK   28  A    between atoms: _78  and  _80
REMARK   29  A    between atoms: _80  and  _81
REMARK   30  A    between atoms: _80  and  _83
REMARK   31  A    between atoms: _83  and  _84
REMARK   32  A    between atoms: _84  and  _85
REMARK   33  A    between atoms: _85  and  _86
REMARK   34  A    between atoms: _95  and  _97
REMARK   35  A    between atoms: _97  and  _98
REMARK   36  A    between atoms: _97  and  _100
REMARK   37  A    between atoms: _100  and  _101
REMARK   38  A    between atoms: _101  and  _102
REMARK   39  A    between atoms: _104  and  _106
REMARK   40  A    between atoms: _106  and  _107
REMARK   41  A    between atoms: _106  and  _109
REMARK   42  A    between atoms: _109  and  _110
REMARK   43  A    between atoms: _114  and  _115
REMARK   44  A    between atoms: _120  and  _122
REMARK   45  A    between atoms: _122  and  _123
REMARK   46  A    between atoms: _122  and  _125
REMARK   47  A    between atoms: _125  and  _126
REMARK   48  A    between atoms: _131  and  _133
REMARK   49  A    between atoms: _133  and  _134
REMARK   50  A    between atoms: _133  and  _136
REMARK   51  A    between atoms: _136  and  _137
REMARK   52  A    between atoms: _140  and  _142
REMARK   53  A    between atoms: _142  and  _143
REMARK   54  A    between atoms: _146  and  _148
REMARK   55  A    between atoms: _148  and  _149
REMARK   56  A    between atoms: _148  and  _151
REMARK   57  A    between atoms: _151  and  _152
REMARK   58  A    between atoms: _155  and  _157
REMARK   59  A    between atoms: _157  and  _158
REMARK   60  A    between atoms: _157  and  _160
REMARK   61  A    between atoms: _160  and  _161
REMARK   62  A    between atoms: _164  and  _166
REMARK   63  A    between atoms: _166  and  _167
REMARK   64  A    between atoms: _166  and  _169
REMARK   65  A    between atoms: _172  and  _174
REMARK   66  A    between atoms: _174  and  _175
REMARK   67  A    between atoms: _174  and  _177
REMARK   68  A    between atoms: _177  and  _178
REMARK   69  A    between atoms: _180  and  _182
REMARK   70  A    between atoms: _182  and  _183
REMARK   71  A    between atoms: _182  and  _185
REMARK   72  A    between atoms: _185  and  _186
REMARK   73  A    between atoms: _191  and  _192
REMARK   74  A    between atoms: _194  and  _196
REMARK   75  A    between atoms: _196  and  _197
REMARK   76  A    between atoms: _196  and  _199
REMARK   77  A    between atoms: _199  and  _200
REMARK   78  A    between atoms: _202  and  _204
REMARK   79  A    between atoms: _204  and  _205
REMARK   80  A    between atoms: _204  and  _207
REMARK   81  A    between atoms: _207  and  _208
REMARK   82  A    between atoms: _211  and  _213
REMARK   83  A    between atoms: _213  and  _214
REMARK   84  A    between atoms: _213  and  _216
REMARK   85  A    between atoms: _216  and  _217
REMARK   86  A    between atoms: _217  and  _218
REMARK   87  A    between atoms: _218  and  _219
REMARK   88  A    between atoms: _219  and  _220
REMARK   89  A    between atoms: _224  and  _226
REMARK   90  A    between atoms: _226  and  _227
REMARK   91  A    between atoms: _226  and  _229
REMARK   92  A    between atoms: _232  and  _234
REMARK   93  A    between atoms: _234  and  _235
REMARK   94  A    between atoms: _238  and  _240
REMARK   95  A    between atoms: _240  and  _241
REMARK   96  A    between atoms: _240  and  _243
REMARK   97  A    between atoms: _243  and  _244
REMARK   98  A    between atoms: _247  and  _249
REMARK   99  A    between atoms: _249  and  _250
REMARK  100  A    between atoms: _249  and  _252
REMARK  101  A    between atoms: _252  and  _253
REMARK  102  A    between atoms: _253  and  _254
REMARK  103  A    between atoms: _257  and  _259
REMARK  104  A    between atoms: _259  and  _260
REMARK  105  A    between atoms: _259  and  _262
REMARK  106  A    between atoms: _265  and  _267
REMARK  107  A    between atoms: _267  and  _268
REMARK  108  A    between atoms: _267  and  _270
REMARK  109  A    between atoms: _270  and  _271
REMARK  110  A    between atoms: _274  and  _276
REMARK  111  A    between atoms: _276  and  _277
REMARK  112  A    between atoms: _276  and  _279
REMARK  113  A    between atoms: _279  and  _280
REMARK  114  A    between atoms: _280  and  _281
REMARK  115  A    between atoms: _283  and  _285
REMARK  116  A    between atoms: _285  and  _286
REMARK  117  A    between atoms: _285  and  _288
REMARK  118  A    between atoms: _288  and  _289
REMARK  119  A    between atoms: _292  and  _294
REMARK  120  A    between atoms: _294  and  _295
REMARK  121  A    between atoms: _294  and  _297
REMARK  122  A    between atoms: _297  and  _298
REMARK  123  A    between atoms: _298  and  _299
REMARK  124  A    between atoms: _299  and  _300
REMARK  125  A    between atoms: _309  and  _311
REMARK  126  A    between atoms: _311  and  _312
REMARK  127  A    between atoms: _311  and  _314
REMARK  128  A    between atoms: _314  and  _315
REMARK  129  A    between atoms: _317  and  _319
REMARK  130  A    between atoms: _319  and  _320
REMARK  131  A    between atoms: _319  and  _322
REMARK  132  A    between atoms: _322  and  _323
REMARK  133  A    between atoms: _328  and  _330
REMARK  134  A    between atoms: _330  and  _331
REMARK  135  A    between atoms: _330  and  _333
REMARK  136  A    between atoms: _333  and  _334
REMARK  137  A    between atoms: _334  and  _335
REMARK  138  A    between atoms: _340  and  _342
REMARK  139  A    between atoms: _342  and  _343
REMARK  140  A    between atoms: _342  and  _345
REMARK  141  A    between atoms: _345  and  _346
REMARK  142  A    between atoms: _348  and  _350
REMARK  143  A    between atoms: _350  and  _351
REMARK  144  A    between atoms: _350  and  _353
REMARK  145  A    between atoms: _353  and  _354
REMARK  146  A    between atoms: _360  and  _362
REMARK  147  A    between atoms: _362  and  _363
REMARK  148  A    between atoms: _362  and  _365
REMARK  149  A    between atoms: _365  and  _366
REMARK  150  A    between atoms: _368  and  _370
REMARK  151  A    between atoms: _370  and  _371
REMARK  152  A    between atoms: _370  and  _373
REMARK  153  A    between atoms: _373  and  _374
REMARK  154  A    between atoms: _384  and  _386
REMARK  155  A    between atoms: _386  and  _387
REMARK  156  A    between atoms: _386  and  _389
REMARK  157  A    between atoms: _389  and  _390
REMARK  158  A    between atoms: _393  and  _395
REMARK  159  A    between atoms: _395  and  _396
REMARK  160  A    between atoms: _395  and  _398
REMARK  161  A    between atoms: _400  and  _402
REMARK  162  A    between atoms: _402  and  _403
REMARK  163  A    between atoms: _402  and  _405
REMARK  164  A    between atoms: _405  and  _406
REMARK  165  A    between atoms: _411  and  _412
REMARK  166  A    between atoms: _414  and  _416
REMARK  167  A    between atoms: _416  and  _417
REMARK  168  A    between atoms: _416  and  _419
REMARK  169  A    between atoms: _419  and  _420
REMARK  170  A    between atoms: _420  and  _421
REMARK  171  A    between atoms: _421  and  _422
REMARK  172  A    between atoms: _422  and  _423
REMARK  173  A    between atoms: _427  and  _429
REMARK  174  A    between atoms: _429  and  _430
REMARK  175  A    between atoms: _429  and  _432
REMARK  176  A    between atoms: _432  and  _433
REMARK  177  A    between atoms: _438  and  _439
REMARK  178  A    between atoms: _441  and  _443
REMARK  179  A    between atoms: _443  and  _444
REMARK  180  A    between atoms: _443  and  _446
REMARK  181  A    between atoms: _446  and  _447
REMARK  182  A    between atoms: _450  and  _452
REMARK  183  A    between atoms: _452  and  _453
REMARK  184  A    between atoms: _452  and  _455
REMARK  185  A    between atoms: _458  and  _460
REMARK  186  A    between atoms: _460  and  _461
REMARK  187  A    between atoms: _460  and  _463
REMARK  188  A    between atoms: _463  and  _464
REMARK  189  A    between atoms: _467  and  _469
REMARK  190  A    between atoms: _469  and  _470
REMARK  191  A    between atoms: _469  and  _472
REMARK  192  A    between atoms: _475  and  _477
REMARK  193  A    between atoms: _477  and  _478
REMARK  194  A    between atoms: _477  and  _480
REMARK  195  A    between atoms: _480  and  _481
REMARK  196  A    between atoms: _483  and  _485
REMARK  197  A    between atoms: _485  and  _486
REMARK  198  A    between atoms: _485  and  _488
REMARK  199  A    between atoms: _488  and  _489
REMARK  200  A    between atoms: _489  and  _490
REMARK  201  A    between atoms: _490  and  _491
REMARK  202  A    between atoms: _491  and  _492
REMARK  203  A    between atoms: _496  and  _498
REMARK  204  A    between atoms: _498  and  _499
REMARK  205  A    between atoms: _502  and  _504
REMARK  206  A    between atoms: _504  and  _505
REMARK  207  A    between atoms: _507  and  _509
REMARK  208  A    between atoms: _509  and  _510
REMARK  209  A    between atoms: _509  and  _512
REMARK  210  A    between atoms: _512  and  _513
REMARK  211  A    between atoms: _518  and  _520
REMARK  212  A    between atoms: _520  and  _521
REMARK  213  A    between atoms: _520  and  _523
REMARK  214  A    between atoms: _523  and  _524
REMARK  215  A    between atoms: _527  and  _529
REMARK  216  A    between atoms: _529  and  _530
REMARK  217  A    between atoms: _529  and  _532
REMARK  218  A    between atoms: _532  and  _533
REMARK  219  A    between atoms: _536  and  _538
REMARK  220  A    between atoms: _538  and  _539
REMARK  221  A    between atoms: _538  and  _541
REMARK  222  A    between atoms: _541  and  _542
REMARK  223  A    between atoms: _545  and  _547
REMARK  224  A    between atoms: _547  and  _548
REMARK  225  A    between atoms: _547  and  _550
REMARK  226  A    between atoms: _550  and  _551
REMARK  227  A    between atoms: _554  and  _556
REMARK  228  A    between atoms: _556  and  _557
REMARK  229  A    between atoms: _556  and  _559
REMARK  230  A    between atoms: _559  and  _560
REMARK  231  A    between atoms: _560  and  _561
REMARK  232  A    between atoms: _566  and  _568
REMARK  233  A    between atoms: _568  and  _569
REMARK  234  A    between atoms: _568  and  _571
REMARK  235  A    between atoms: _571  and  _572
REMARK  236  A    between atoms: _577  and  _579
REMARK  237  A    between atoms: _579  and  _580
REMARK  238  A    between atoms: _579  and  _582
REMARK  239  A    between atoms: _582  and  _583
REMARK  240  A    between atoms: _585  and  _587
REMARK  241  A    between atoms: _587  and  _588
REMARK  242  A    between atoms: _587  and  _590
REMARK  243  A    between atoms: _590  and  _591
REMARK  244  A    between atoms: _591  and  _592
REMARK  245  A    between atoms: _597  and  _599
REMARK  246  A    between atoms: _599  and  _600
REMARK  247  A    between atoms: _599  and  _602
REMARK  248  A    between atoms: _602  and  _603
REMARK  249  A    between atoms: _608  and  _609
REMARK  250  A    between atoms: _611  and  _613
REMARK  251  A    between atoms: _613  and  _614
REMARK  252  A    between atoms: _613  and  _616
REMARK  253  A    between atoms: _616  and  _617
REMARK  254  A    between atoms: _617  and  _618
REMARK  255  A    between atoms: _618  and  _619
REMARK  256  A    between atoms: _628  and  _630
REMARK  257  A    between atoms: _630  and  _631
REMARK  258  A    between atoms: _630  and  _633
REMARK  259  A    between atoms: _633  and  _634
REMARK  260  A    between atoms: _637  and  _639
REMARK  261  A    between atoms: _639  and  _640
REMARK  262  A    between atoms: _639  and  _642
REMARK  263  A    between atoms: _642  and  _643
REMARK  264  A    between atoms: _645  and  _647
REMARK  265  A    between atoms: _647  and  _648
REMARK  266  A    between atoms: _647  and  _650
REMARK  267  A    between atoms: _650  and  _651
REMARK  268  A    between atoms: _656  and  _658
REMARK  269  A    between atoms: _658  and  _659
REMARK  270  A    between atoms: _658  and  _661
REMARK  271  A    between atoms: _661  and  _662
REMARK  272  A    between atoms: _662  and  _663
REMARK  273  A    between atoms: _663  and  _664
REMARK  274  A    between atoms: _664  and  _665
REMARK  275  A    between atoms: _669  and  _671
REMARK  276  A    between atoms: _671  and  _672
REMARK  277  A    between atoms: _671  and  _674
REMARK  278  A    between atoms: _674  and  _675
REMARK  279  A    between atoms: _678  and  _680
REMARK  280  A    between atoms: _680  and  _681
REMARK  281  A    between atoms: _680  and  _683
REMARK  282  A    between atoms: _683  and  _684
REMARK  283  A    between atoms: _687  and  _689
REMARK  284  A    between atoms: _689  and  _690
REMARK  285  A    between atoms: _689  and  _692
REMARK  286  A    between atoms: _695  and  _697
REMARK  287  A    between atoms: _697  and  _698
REMARK  288  A    between atoms: _697  and  _700
REMARK  289  A    between atoms: _700  and  _701
REMARK  290  A    between atoms: _704  and  _706
REMARK  291  A    between atoms: _706  and  _707
REMARK  292  A    between atoms: _706  and  _709
REMARK  293  A    between atoms: _709  and  _710
REMARK                            x       y       z     vdW  Elec       q    Type
REMARK                         _______ _______ _______ _____ _____    ______ ____
ROOT
ATOM      1  CG  TYR A   1      61.865  12.828   3.704  0.00  0.00    -0.020 A 
ATOM      2  CD2 TYR A   1      61.453  11.495   3.782  0.00  0.00    -0.001 A 
ATOM      3  CE2 TYR A   1      60.118  11.134   3.600  0.00  0.00    +0.036 A 
ATOM      4  CZ  TYR A   1      59.152  12.116   3.331  0.00  0.00    +0.134 A 
ATOM      5  CE1 TYR A   1      59.532  13.450   3.244  0.00  0.00    +0.036 A 
ATOM      6  CD1 TYR A   1      60.898  13.802   3.442  0.00  0.00    -0.001 A 
ENDROOT
BRANCH   4   7
ATOM      7  OH  TYR A   1      57.835  11.722   3.139  0.00  0.00    -0.506 OA
ATOM      8  HH  TYR A   1      57.276  12.519   2.960  0.00  0.00    +0.292 HD
ENDBRANCH   4   7
BRANCH   1   9
ATOM      9  CB  TYR A   1      63.321  13.199   3.963  0.00  0.00    +0.051 C 
BRANCH   9  10
ATOM     10  CA  TYR A   1      63.738  12.978   5.442  0.00  0.00    +0.137 C 
BRANCH  10  11
ATOM     11  N   TYR A   1      62.789  13.652   6.332  0.00  0.00    -0.239 NA
ATOM     12  H   TYR A   1      62.181  13.085   6.956  0.00  0.00    +0.142 HD
ENDBRANCH  10  11
BRANCH  10  13
ATOM     13  C   TYR A   1      65.194  13.433   5.725  0.00  0.00    +0.224 C 
ATOM     14  O   TYR A   1      66.019  13.529   4.807  0.00  0.00    -0.287 OA
ENDBRANCH  10  13
ENDBRANCH   9  10
ENDBRANCH   1   9
TORSDOF 5
REMARK  Name = ../refined-set-2016/2o4r/2o4r_pocket.pdb
REMARK  293 active torsions:
REMARK  status: ('A' for Active; 'I' for Inactive)
REMARK    1  A    between atoms: _1  and  _3
REMARK    2  A    between atoms: _3  and  _4
REMARK    3  A    between atoms: _3  and  _6
REMARK    4  A    between atoms: _6  and  _7
REMARK    5  A    between atoms: _10  and  _12
REMARK    6  A    between atoms: _12  and  _13
REMARK    7  A    between atoms: _12  and  _15
REMARK    8  A    between atoms: _15  and  _16
REMARK    9  A    between atoms: _21  and  _22
REMARK   10  A    between atoms: _24  and  _26
REMARK   11  A    between atoms: _26  and  _27
REMARK   12  A    between atoms: _26  and  _29
REMARK   13  A    between atoms: _29  and  _30
REMARK   14  A    between atoms: _34  and  _35
REMARK   15  A    between atoms: _40  and  _42
REMARK   16  A    between atoms: _42  and  _43
REMARK   17  A    between atoms: _42  and  _45
REMARK   18  A    between atoms: _45  and  _46
REMARK   19  A    between atoms: _51  and  _52
REMARK   20  A    between atoms: _54  and  _56
REMARK   21  A    between atoms: _56  and  _57
REMARK   22  A    between atoms: _56  and  _59
REMARK   23  A    between atoms: _59  and  _60
REMARK   24  A    between atoms: _66  and  _68
REMARK   25  A    between atoms: _68  and  _69
REMARK   26  A    between atoms: _68  and  _71
REMARK   27  A    between atoms: _71  and  _72
REMARK   28  A    between atoms: _78  and  _80
REMARK   29  A    between atoms: _80  and  _81
REMARK   30  A    between atoms: _80  and  _83
REMARK   31  A    between atoms: _83  and  _84
REMARK   32  A    between atoms: _84  and  _85
REMARK   33  A    between atoms: _85  and  _86
REMARK   34  A    between atoms: _95  and  _97
REMARK   35  A    between atoms: _97  and  _98
REMARK   36  A    between atoms: _97  and  _100
REMARK   37  A    between atoms: _100  and  _101
REMARK   38  A    between atoms: _101  and  _102
REMARK   39  A    between atoms: _104  and  _106
REMARK   40  A    between atoms: _106  and  _107
REMARK   41  A    between atoms: _106  and  _109
REMARK   42  A    between atoms: _109  and  _110
REMARK   43  A    between atoms: _114  and  _115
REMARK   44  A    between atoms: _120  and  _122
REMARK   45  A    between atoms: _122  and  _123
REMARK   46  A    between atoms: _122  and  _125
REMARK   47  A    between atoms: _125  and  _126
REMARK   48  A    between atoms: _131  and  _133
REMARK   49  A    between atoms: _133  and  _134
REMARK   50  A    between atoms: _133  and  _136
REMARK   51  A    between atoms: _136  and  _137
REMARK   52  A    between atoms: _140  and  _142
REMARK   53  A    between atoms: _142  and  _143
REMARK   54  A    between atoms: _146  and  _148
REMARK   55  A    between atoms: _148  and  _149
REMARK   56  A    between atoms: _148  and  _151
REMARK   57  A    between atoms: _151  and  _152
REMARK   58  A    between atoms: _155  and  _157
REMARK   59  A    between atoms: _157  and  _158
REMARK   60  A    between atoms: _157  and  _160
REMARK   61  A    between atoms: _160  and  _161
REMARK   62  A    between atoms: _164  and  _166
REMARK   63  A    between atoms: _166  and  _167
REMARK   64  A    between atoms: _166  and  _169
REMARK   65  A    between atoms: _172  and  _174
REMARK   66  A    between atoms: _174  and  _175
REMARK   67  A    between atoms: _174  and  _177
REMARK   68  A    between atoms: _177  and  _178
REMARK   69  A    between atoms: _180  and  _182
REMARK   70  A    between atoms: _182  and  _183
REMARK   71  A    between atoms: _182  and  _185
REMARK   72  A    between atoms: _185  and  _186
REMARK   73  A    between atoms: _191  and  _192
REMARK   74  A    between atoms: _194  and  _196
REMARK   75  A    between atoms: _196  and  _197
REMARK   76  A    between atoms: _196  and  _199
REMARK   77  A    between atoms: _199  and  _200
REMARK   78  A    between atoms: _202  and  _204
REMARK   79  A    between atoms: _204  and  _205
REMARK   80  A    between atoms: _204  and  _207
REMARK   81  A    between atoms: _207  and  _208
REMARK   82  A    between atoms: _211  and  _213
REMARK   83  A    between atoms: _213  and  _214
REMARK   84  A    between atoms: _213  and  _216
REMARK   85  A    between atoms: _216  and  _217
REMARK   86  A    between atoms: _217  and  _218
REMARK   87  A    between atoms: _218  and  _219
REMARK   88  A    between atoms: _219  and  _220
REMARK   89  A    between atoms: _224  and  _226
REMARK   90  A    between atoms: _226  and  _227
REMARK   91  A    between atoms: _226  and  _229
REMARK   92  A    between atoms: _232  and  _234
REMARK   93  A    between atoms: _234  and  _235
REMARK   94  A    between atoms: _238  and  _240
REMARK   95  A    between atoms: _240  and  _241
REMARK   96  A    between atoms: _240  and  _243
REMARK   97  A    between atoms: _243  and  _244
REMARK   98  A    between atoms: _247  and  _249
REMARK   99  A    between atoms: _249  and  _250
REMARK  100  A    between atoms: _249  and  _252
REMARK  101  A    between atoms: _252  and  _253
REMARK  102  A    between atoms: _253  and  _254
REMARK  103  A    between atoms: _257  and  _259
REMARK  104  A    between atoms: _259  and  _260
REMARK  105  A    between atoms: _259  and  _262
REMARK  106  A    between atoms: _265  and  _267
REMARK  107  A    between atoms: _267  and  _268
REMARK  108  A    between atoms: _267  and  _270
REMARK  109  A    between atoms: _270  and  _271
REMARK  110  A    between atoms: _274  and  _276
REMARK  111  A    between atoms: _276  and  _277
REMARK  112  A    between atoms: _276  and  _279
REMARK  113  A    between atoms: _279  and  _280
REMARK  114  A    between atoms: _280  and  _281
REMARK  115  A    between atoms: _283  and  _285
REMARK  116  A    between atoms: _285  and  _286
REMARK  117  A    between atoms: _285  and  _288
REMARK  118  A    between atoms: _288  and  _289
REMARK  119  A    between atoms: _292  and  _294
REMARK  120  A    between atoms: _294  and  _295
REMARK  121  A    between atoms: _294  and  _297
REMARK  122  A    between atoms: _297  and  _298
REMARK  123  A    between atoms: _298  and  _299
REMARK  124  A    between atoms: _299  and  _300
REMARK  125  A    between atoms: _309  and  _311
REMARK  126  A    between atoms: _311  and  _312
REMARK  127  A    between atoms: _311  and  _314
REMARK  128  A    between atoms: _314  and  _315
REMARK  129  A    between atoms: _317  and  _319
REMARK  130  A    between atoms: _319  and  _320
REMARK  131  A    between atoms: _319  and  _322
REMARK  132  A    between atoms: _322  and  _323
REMARK  133  A    between atoms: _328  and  _330
REMARK  134  A    between atoms: _330  and  _331
REMARK  135  A    between atoms: _330  and  _333
REMARK  136  A    between atoms: _333  and  _334
REMARK  137  A    between atoms: _334  and  _335
REMARK  138  A    between atoms: _340  and  _342
REMARK  139  A    between atoms: _342  and  _343
REMARK  140  A    between atoms: _342  and  _345
REMARK  141  A    between atoms: _345  and  _346
REMARK  142  A    between atoms: _348  and  _350
REMARK  143  A    between atoms: _350  and  _351
REMARK  144  A    between atoms: _350  and  _353
REMARK  145  A    between atoms: _353  and  _354
REMARK  146  A    between atoms: _360  and  _362
REMARK  147  A    between atoms: _362  and  _363
REMARK  148  A    between atoms: _362  and  _365
REMARK  149  A    between atoms: _365  and  _366
REMARK  150  A    between atoms: _368  and  _370
REMARK  151  A    between atoms: _370  and  _371
REMARK  152  A    between atoms: _370  and  _373
REMARK  153  A    between atoms: _373  and  _374
REMARK  154  A    between atoms: _384  and  _386
REMARK  155  A    between atoms: _386  and  _387
REMARK  156  A    between atoms: _386  and  _389
REMARK  157  A    between atoms: _389  and  _390
REMARK  158  A    between atoms: _393  and  _395
REMARK  159  A    between atoms: _395  and  _396
REMARK  160  A    between atoms: _395  and  _398
REMARK  161  A    between atoms: _400  and  _402
REMARK  162  A    between atoms: _402  and  _403
REMARK  163  A    between atoms: _402  and  _405
REMARK  164  A    between atoms: _405  and  _406
REMARK  165  A    between atoms: _411  and  _412
REMARK  166  A    between atoms: _414  and  _416
REMARK  167  A    between atoms: _416  and  _417
REMARK  168  A    between atoms: _416  and  _419
REMARK  169  A    between atoms: _419  and  _420
REMARK  170  A    between atoms: _420  and  _421
REMARK  171  A    between atoms: _421  and  _422
REMARK  172  A    between atoms: _422  and  _423
REMARK  173  A    between atoms: _427  and  _429
REMARK  174  A    between atoms: _429  and  _430
REMARK  175  A    between atoms: _429  and  _432
REMARK  176  A    between atoms: _432  and  _433
REMARK  177  A    between atoms: _438  and  _439
REMARK  178  A    between atoms: _441  and  _443
REMARK  179  A    between atoms: _443  and  _444
REMARK  180  A    between atoms: _443  and  _446
REMARK  181  A    between atoms: _446  and  _447
REMARK  182  A    between atoms: _450  and  _452
REMARK  183  A    between atoms: _452  and  _453
REMARK  184  A    between atoms: _452  and  _455
REMARK  185  A    between atoms: _458  and  _460
REMARK  186  A    between atoms: _460  and  _461
REMARK  187  A    between atoms: _460  and  _463
REMARK  188  A    between atoms: _463  and  _464
REMARK  189  A    between atoms: _467  and  _469
REMARK  190  A    between atoms: _469  and  _470
REMARK  191  A    between atoms: _469  and  _472
REMARK  192  A    between atoms: _475  and  _477
REMARK  193  A    between atoms: _477  and  _478
REMARK  194  A    between atoms: _477  and  _480
REMARK  195  A    between atoms: _480  and  _481
REMARK  196  A    between atoms: _483  and  _485
REMARK  197  A    between atoms: _485  and  _486
REMARK  198  A    between atoms: _485  and  _488
REMARK  199  A    between atoms: _488  and  _489
REMARK  200  A    between atoms: _489  and  _490
REMARK  201  A    between atoms: _490  and  _491
REMARK  202  A    between atoms: _491  and  _492
REMARK  203  A    between atoms: _496  and  _498
REMARK  204  A    between atoms: _498  and  _499
REMARK  205  A    between atoms: _502  and  _504
REMARK  206  A    between atoms: _504  and  _505
REMARK  207  A    between atoms: _507  and  _509
REMARK  208  A    between atoms: _509  and  _510
REMARK  209  A    between atoms: _509  and  _512
REMARK  210  A    between atoms: _512  and  _513
REMARK  211  A    between atoms: _518  and  _520
REMARK  212  A    between atoms: _520  and  _521
REMARK  213  A    between atoms: _520  and  _523
REMARK  214  A    between atoms: _523  and  _524
REMARK  215  A    between atoms: _527  and  _529
REMARK  216  A    between atoms: _529  and  _530
REMARK  217  A    between atoms: _529  and  _532
REMARK  218  A    between atoms: _532  and  _533
REMARK  219  A    between atoms: _536  and  _538
REMARK  220  A    between atoms: _538  and  _539
REMARK  221  A    between atoms: _538  and  _541
REMARK  222  A    between atoms: _541  and  _542
REMARK  223  A    between atoms: _545  and  _547
REMARK  224  A    between atoms: _547  and  _548
REMARK  225  A    between atoms: _547  and  _550
REMARK  226  A    between atoms: _550  and  _551
REMARK  227  A    between atoms: _554  and  _556
REMARK  228  A    between atoms: _556  and  _557
REMARK  229  A    between atoms: _556  and  _559
REMARK  230  A    between atoms: _559  and  _560
REMARK  231  A    between atoms: _560  and  _561
REMARK  232  A    between atoms: _566  and  _568
REMARK  233  A    between atoms: _568  and  _569
REMARK  234  A    between atoms: _568  and  _571
REMARK  235  A    between atoms: _571  and  _572
REMARK  236  A    between atoms: _577  and  _579
REMARK  237  A    between atoms: _579  and  _580
REMARK  238  A    between atoms: _579  and  _582
REMARK  239  A    between atoms: _582  and  _583
REMARK  240  A    between atoms: _585  and  _587
REMARK  241  A    between atoms: _587  and  _588
REMARK  242  A    between atoms: _587  and  _590
REMARK  243  A    between atoms: _590  and  _591
REMARK  244  A    between atoms: _591  and  _592
REMARK  245  A    between atoms: _597  and  _599
REMARK  246  A    between atoms: _599  and  _600
REMARK  247  A    between atoms: _599  and  _602
REMARK  248  A    between atoms: _602  and  _603
REMARK  249  A    between atoms: _608  and  _609
REMARK  250  A    between atoms: _611  and  _613
REMARK  251  A    between atoms: _613  and  _614
REMARK  252  A    between atoms: _613  and  _616
REMARK  253  A    between atoms: _616  and  _617
REMARK  254  A    between atoms: _617  and  _618
REMARK  255  A    between atoms: _618  and  _619
REMARK  256  A    between atoms: _628  and  _630
REMARK  257  A    between atoms: _630  and  _631
REMARK  258  A    between atoms: _630  and  _633
REMARK  259  A    between atoms: _633  and  _634
REMARK  260  A    between atoms: _637  and  _639
REMARK  261  A    between atoms: _639  and  _640
REMARK  262  A    between atoms: _639  and  _642
REMARK  263  A    between atoms: _642  and  _643
REMARK  264  A    between atoms: _645  and  _647
REMARK  265  A    between atoms: _647  and  _648
REMARK  266  A    between atoms: _647  and  _650
REMARK  267  A    between atoms: _650  and  _651
REMARK  268  A    between atoms: _656  and  _658
REMARK  269  A    between atoms: _658  and  _659
REMARK  270  A    between atoms: _658  and  _661
REMARK  271  A    between atoms: _661  and  _662
REMARK  272  A    between atoms: _662  and  _663
REMARK  273  A    between atoms: _663  and  _664
REMARK  274  A    between atoms: _664  and  _665
REMARK  275  A    between atoms: _669  and  _671
REMARK  276  A    between atoms: _671  and  _672
REMARK  277  A    between atoms: _671  and  _674
REMARK  278  A    between atoms: _674  and  _675
REMARK  279  A    between atoms: _678  and  _680
REMARK  280  A    between atoms: _680  and  _681
REMARK  281  A    between atoms: _680  and  _683
REMARK  282  A    between atoms: _683  and  _684
REMARK  283  A    between atoms: _687  and  _689
REMARK  284  A    between atoms: _689  and  _690
REMARK  285  A    between atoms: _689  and  _692
REMARK  286  A    between atoms: _695  and  _697
REMARK  287  A    between atoms: _697  and  _698
REMARK  288  A    between atoms: _697  and  _700
REMARK  289  A    between atoms: _700  and  _701
REMARK  290  A    between atoms: _704  and  _706
REMARK  291  A    between atoms: _706  and  _707
REMARK  292  A    between atoms: _706  and  _709
REMARK  293  A    between atoms: _709  and  _710
REMARK                            x       y       z     vdW  Elec       q    Type
REMARK                         _______ _______ _______ _____ _____    ______ ____
ROOT
ATOM      1  CB  PHE A   1      67.696  11.993   2.344  0.00  0.00    +0.051 C 
ENDROOT
BRANCH   1   2
ATOM      2  CG  PHE A   1      66.418  11.182   2.108  0.00  0.00    -0.020 A 
ATOM      3  CD2 PHE A   1      65.883  10.377   3.096  0.00  0.00    -0.004 A 
ATOM      4  CE2 PHE A   1      64.711   9.646   2.882  0.00  0.00    -0.000 A 
ATOM      5  CZ  PHE A   1      64.057   9.746   1.665  0.00  0.00    -0.000 A 
ATOM      6  CE1 PHE A   1      64.570  10.531   0.675  0.00  0.00    -0.000 A 
ATOM      7  CD1 PHE A   1      65.750  11.250   0.880  0.00  0.00    -0.004 A 
ENDBRANCH   1   2
BRANCH   1   8
ATOM      8  CA  PHE A   1      68.745  11.292   3.232  0.00  0.00    +0.137 C 
BRANCH   8   9
ATOM      9  N   PHE A   1      68.407  11.388   4.670  0.00  0.00    -0.239 NA
ATOM     10  H   PHE A   1      67.565  11.927   4.957  0.00  0.00    +0.142 HD
ENDBRANCH   8   9
BRANCH   8  11
ATOM     11  C   PHE A   1      70.121  11.861   2.919  0.00  0.00    +0.224 C 
ATOM     12  O   PHE A   1      70.754  11.452   1.958  0.00  0.00    -0.287 OA
ENDBRANCH   8  11
ENDBRANCH   1   8
TORSDOF 4
REMARK  Name = ../refined-set-2016/2o4r/2o4r_pocket.pdb
REMARK  293 active torsions:
REMARK  status: ('A' for Active; 'I' for Inactive)
REMARK    1  A    between atoms: _1  and  _3
REMARK    2  A    between atoms: _3  and  _4
REMARK    3  A    between atoms: _3  and  _6
REMARK    4  A    between atoms: _6  and  _7
REMARK    5  A    between atoms: _10  and  _12
REMARK    6  A    between atoms: _12  and  _13
REMARK    7  A    between atoms: _12  and  _15
REMARK    8  A    between atoms: _15  and  _16
REMARK    9  A    between atoms: _21  and  _22
REMARK   10  A    between atoms: _24  and  _26
REMARK   11  A    between atoms: _26  and  _27
REMARK   12  A    between atoms: _26  and  _29
REMARK   13  A    between atoms: _29  and  _30
REMARK   14  A    between atoms: _34  and  _35
REMARK   15  A    between atoms: _40  and  _42
REMARK   16  A    between atoms: _42  and  _43
REMARK   17  A    between atoms: _42  and  _45
REMARK   18  A    between atoms: _45  and  _46
REMARK   19  A    between atoms: _51  and  _52
REMARK   20  A    between atoms: _54  and  _56
REMARK   21  A    between atoms: _56  and  _57
REMARK   22  A    between atoms: _56  and  _59
REMARK   23  A    between atoms: _59  and  _60
REMARK   24  A    between atoms: _66  and  _68
REMARK   25  A    between atoms: _68  and  _69
REMARK   26  A    between atoms: _68  and  _71
REMARK   27  A    between atoms: _71  and  _72
REMARK   28  A    between atoms: _78  and  _80
REMARK   29  A    between atoms: _80  and  _81
REMARK   30  A    between atoms: _80  and  _83
REMARK   31  A    between atoms: _83  and  _84
REMARK   32  A    between atoms: _84  and  _85
REMARK   33  A    between atoms: _85  and  _86
REMARK   34  A    between atoms: _95  and  _97
REMARK   35  A    between atoms: _97  and  _98
REMARK   36  A    between atoms: _97  and  _100
REMARK   37  A    between atoms: _100  and  _101
REMARK   38  A    between atoms: _101  and  _102
REMARK   39  A    between atoms: _104  and  _106
REMARK   40  A    between atoms: _106  and  _107
REMARK   41  A    between atoms: _106  and  _109
REMARK   42  A    between atoms: _109  and  _110
REMARK   43  A    between atoms: _114  and  _115
REMARK   44  A    between atoms: _120  and  _122
REMARK   45  A    between atoms: _122  and  _123
REMARK   46  A    between atoms: _122  and  _125
REMARK   47  A    between atoms: _125  and  _126
REMARK   48  A    between atoms: _131  and  _133
REMARK   49  A    between atoms: _133  and  _134
REMARK   50  A    between atoms: _133  and  _136
REMARK   51  A    between atoms: _136  and  _137
REMARK   52  A    between atoms: _140  and  _142
REMARK   53  A    between atoms: _142  and  _143
REMARK   54  A    between atoms: _146  and  _148
REMARK   55  A    between atoms: _148  and  _149
REMARK   56  A    between atoms: _148  and  _151
REMARK   57  A    between atoms: _151  and  _152
REMARK   58  A    between atoms: _155  and  _157
REMARK   59  A    between atoms: _157  and  _158
REMARK   60  A    between atoms: _157  and  _160
REMARK   61  A    between atoms: _160  and  _161
REMARK   62  A    between atoms: _164  and  _166
REMARK   63  A    between atoms: _166  and  _167
REMARK   64  A    between atoms: _166  and  _169
REMARK   65  A    between atoms: _172  and  _174
REMARK   66  A    between atoms: _174  and  _175
REMARK   67  A    between atoms: _174  and  _177
REMARK   68  A    between atoms: _177  and  _178
REMARK   69  A    between atoms: _180  and  _182
REMARK   70  A    between atoms: _182  and  _183
REMARK   71  A    between atoms: _182  and  _185
REMARK   72  A    between atoms: _185  and  _186
REMARK   73  A    between atoms: _191  and  _192
REMARK   74  A    between atoms: _194  and  _196
REMARK   75  A    between atoms: _196  and  _197
REMARK   76  A    between atoms: _196  and  _199
REMARK   77  A    between atoms: _199  and  _200
REMARK   78  A    between atoms: _202  and  _204
REMARK   79  A    between atoms: _204  and  _205
REMARK   80  A    between atoms: _204  and  _207
REMARK   81  A    between atoms: _207  and  _208
REMARK   82  A    between atoms: _211  and  _213
REMARK   83  A    between atoms: _213  and  _214
REMARK   84  A    between atoms: _213  and  _216
REMARK   85  A    between atoms: _216  and  _217
REMARK   86  A    between atoms: _217  and  _218
REMARK   87  A    between atoms: _218  and  _219
REMARK   88  A    between atoms: _219  and  _220
REMARK   89  A    between atoms: _224  and  _226
REMARK   90  A    between atoms: _226  and  _227
REMARK   91  A    between atoms: _226  and  _229
REMARK   92  A    between atoms: _232  and  _234
REMARK   93  A    between atoms: _234  and  _235
REMARK   94  A    between atoms: _238  and  _240
REMARK   95  A    between atoms: _240  and  _241
REMARK   96  A    between atoms: _240  and  _243
REMARK   97  A    between atoms: _243  and  _244
REMARK   98  A    between atoms: _247  and  _249
REMARK   99  A    between atoms: _249  and  _250
REMARK  100  A    between atoms: _249  and  _252
REMARK  101  A    between atoms: _252  and  _253
REMARK  102  A    between atoms: _253  and  _254
REMARK  103  A    between atoms: _257  and  _259
REMARK  104  A    between atoms: _259  and  _260
REMARK  105  A    between atoms: _259  and  _262
REMARK  106  A    between atoms: _265  and  _267
REMARK  107  A    between atoms: _267  and  _268
REMARK  108  A    between atoms: _267  and  _270
REMARK  109  A    between atoms: _270  and  _271
REMARK  110  A    between atoms: _274  and  _276
REMARK  111  A    between atoms: _276  and  _277
REMARK  112  A    between atoms: _276  and  _279
REMARK  113  A    between atoms: _279  and  _280
REMARK  114  A    between atoms: _280  and  _281
REMARK  115  A    between atoms: _283  and  _285
REMARK  116  A    between atoms: _285  and  _286
REMARK  117  A    between atoms: _285  and  _288
REMARK  118  A    between atoms: _288  and  _289
REMARK  119  A    between atoms: _292  and  _294
REMARK  120  A    between atoms: _294  and  _295
REMARK  121  A    between atoms: _294  and  _297
REMARK  122  A    between atoms: _297  and  _298
REMARK  123  A    between atoms: _298  and  _299
REMARK  124  A    between atoms: _299  and  _300
REMARK  125  A    between atoms: _309  and  _311
REMARK  126  A    between atoms: _311  and  _312
REMARK  127  A    between atoms: _311  and  _314
REMARK  128  A    between atoms: _314  and  _315
REMARK  129  A    between atoms: _317  and  _319
REMARK  130  A    between atoms: _319  and  _320
REMARK  131  A    between atoms: _319  and  _322
REMARK  132  A    between atoms: _322  and  _323
REMARK  133  A    between atoms: _328  and  _330
REMARK  134  A    between atoms: _330  and  _331
REMARK  135  A    between atoms: _330  and  _333
REMARK  136  A    between atoms: _333  and  _334
REMARK  137  A    between atoms: _334  and  _335
REMARK  138  A    between atoms: _340  and  _342
REMARK  139  A    between atoms: _342  and  _343
REMARK  140  A    between atoms: _342  and  _345
REMARK  141  A    between atoms: _345  and  _346
REMARK  142  A    between atoms: _348  and  _350
REMARK  143  A    between atoms: _350  and  _351
REMARK  144  A    between atoms: _350  and  _353
REMARK  145  A    between atoms: _353  and  _354
REMARK  146  A    between atoms: _360  and  _362
REMARK  147  A    between atoms: _362  and  _363
REMARK  148  A    between atoms: _362  and  _365
REMARK  149  A    between atoms: _365  and  _366
REMARK  150  A    between atoms: _368  and  _370
REMARK  151  A    between atoms: _370  and  _371
REMARK  152  A    between atoms: _370  and  _373
REMARK  153  A    between atoms: _373  and  _374
REMARK  154  A    between atoms: _384  and  _386
REMARK  155  A    between atoms: _386  and  _387
REMARK  156  A    between atoms: _386  and  _389
REMARK  157  A    between atoms: _389  and  _390
REMARK  158  A    between atoms: _393  and  _395
REMARK  159  A    between atoms: _395  and  _396
REMARK  160  A    between atoms: _395  and  _398
REMARK  161  A    between atoms: _400  and  _402
REMARK  162  A    between atoms: _402  and  _403
REMARK  163  A    between atoms: _402  and  _405
REMARK  164  A    between atoms: _405  and  _406
REMARK  165  A    between atoms: _411  and  _412
REMARK  166  A    between atoms: _414  and  _416
REMARK  167  A    between atoms: _416  and  _417
REMARK  168  A    between atoms: _416  and  _419
REMARK  169  A    between atoms: _419  and  _420
REMARK  170  A    between atoms: _420  and  _421
REMARK  171  A    between atoms: _421  and  _422
REMARK  172  A    between atoms: _422  and  _423
REMARK  173  A    between atoms: _427  and  _429
REMARK  174  A    between atoms: _429  and  _430
REMARK  175  A    between atoms: _429  and  _432
REMARK  176  A    between atoms: _432  and  _433
REMARK  177  A    between atoms: _438  and  _439
REMARK  178  A    between atoms: _441  and  _443
REMARK  179  A    between atoms: _443  and  _444
REMARK  180  A    between atoms: _443  and  _446
REMARK  181  A    between atoms: _446  and  _447
REMARK  182  A    between atoms: _450  and  _452
REMARK  183  A    between atoms: _452  and  _453
REMARK  184  A    between atoms: _452  and  _455
REMARK  185  A    between atoms: _458  and  _460
REMARK  186  A    between atoms: _460  and  _461
REMARK  187  A    between atoms: _460  and  _463
REMARK  188  A    between atoms: _463  and  _464
REMARK  189  A    between atoms: _467  and  _469
REMARK  190  A    between atoms: _469  and  _470
REMARK  191  A    between atoms: _469  and  _472
REMARK  192  A    between atoms: _475  and  _477
REMARK  193  A    between atoms: _477  and  _478
REMARK  194  A    between atoms: _477  and  _480
REMARK  195  A    between atoms: _480  and  _481
REMARK  196  A    between atoms: _483  and  _485
REMARK  197  A    between atoms: _485  and  _486
REMARK  198  A    between atoms: _485  and  _488
REMARK  199  A    between atoms: _488  and  _489
REMARK  200  A    between atoms: _489  and  _490
REMARK  201  A    between atoms: _490  and  _491
REMARK  202  A    between atoms: _491  and  _492
REMARK  203  A    between atoms: _496  and  _498
REMARK  204  A    between atoms: _498  and  _499
REMARK  205  A    between atoms: _502  and  _504
REMARK  206  A    between atoms: _504  and  _505
REMARK  207  A    between atoms: _507  and  _509
REMARK  208  A    between atoms: _509  and  _510
REMARK  209  A    between atoms: _509  and  _512
REMARK  210  A    between atoms: _512  and  _513
REMARK  211  A    between atoms: _518  and  _520
REMARK  212  A    between atoms: _520  and  _521
REMARK  213  A    between atoms: _520  and  _523
REMARK  214  A    between atoms: _523  and  _524
REMARK  215  A    between atoms: _527  and  _529
REMARK  216  A    between atoms: _529  and  _530
REMARK  217  A    between atoms: _529  and  _532
REMARK  218  A    between atoms: _532  and  _533
REMARK  219  A    between atoms: _536  and  _538
REMARK  220  A    between atoms: _538  and  _539
REMARK  221  A    between atoms: _538  and  _541
REMARK  222  A    between atoms: _541  and  _542
REMARK  223  A    between atoms: _545  and  _547
REMARK  224  A    between atoms: _547  and  _548
REMARK  225  A    between atoms: _547  and  _550
REMARK  226  A    between atoms: _550  and  _551
REMARK  227  A    between atoms: _554  and  _556
REMARK  228  A    between atoms: _556  and  _557
REMARK  229  A    between atoms: _556  and  _559
REMARK  230  A    between atoms: _559  and  _560
REMARK  231  A    between atoms: _560  and  _561
REMARK  232  A    between atoms: _566  and  _568
REMARK  233  A    between atoms: _568  and  _569
REMARK  234  A    between atoms: _568  and  _571
REMARK  235  A    between atoms: _571  and  _572
REMARK  236  A    between atoms: _577  and  _579
REMARK  237  A    between atoms: _579  and  _580
REMARK  238  A    between atoms: _579  and  _582
REMARK  239  A    between atoms: _582  and  _583
REMARK  240  A    between atoms: _585  and  _587
REMARK  241  A    between atoms: _587  and  _588
REMARK  242  A    between atoms: _587  and  _590
REMARK  243  A    between atoms: _590  and  _591
REMARK  244  A    between atoms: _591  and  _592
REMARK  245  A    between atoms: _597  and  _599
REMARK  246  A    between atoms: _599  and  _600
REMARK  247  A    between atoms: _599  and  _602
REMARK  248  A    between atoms: _602  and  _603
REMARK  249  A    between atoms: _608  and  _609
REMARK  250  A    between atoms: _611  and  _613
REMARK  251  A    between atoms: _613  and  _614
REMARK  252  A    between atoms: _613  and  _616
REMARK  253  A    between atoms: _616  and  _617
REMARK  254  A    between atoms: _617  and  _618
REMARK  255  A    between atoms: _618  and  _619
REMARK  256  A    between atoms: _628  and  _630
REMARK  257  A    between atoms: _630  and  _631
REMARK  258  A    between atoms: _630  and  _633
REMARK  259  A    between atoms: _633  and  _634
REMARK  260  A    between atoms: _637  and  _639
REMARK  261  A    between atoms: _639  and  _640
REMARK  262  A    between atoms: _639  and  _642
REMARK  263  A    between atoms: _642  and  _643
REMARK  264  A    between atoms: _645  and  _647
REMARK  265  A    between atoms: _647  and  _648
REMARK  266  A    between atoms: _647  and  _650
REMARK  267  A    between atoms: _650  and  _651
REMARK  268  A    between atoms: _656  and  _658
REMARK  269  A    between atoms: _658  and  _659
REMARK  270  A    between atoms: _658  and  _661
REMARK  271  A    between atoms: _661  and  _662
REMARK  272  A    between atoms: _662  and  _663
REMARK  273  A    between atoms: _663  and  _664
REMARK  274  A    between atoms: _664  and  _665
REMARK  275  A    between atoms: _669  and  _671
REMARK  276  A    between atoms: _671  and  _672
REMARK  277  A    between atoms: _671  and  _674
REMARK  278  A    between atoms: _674  and  _675
REMARK  279  A    between atoms: _678  and  _680
REMARK  280  A    between atoms: _680  and  _681
REMARK  281  A    between atoms: _680  and  _683
REMARK  282  A    between atoms: _683  and  _684
REMARK  283  A    between atoms: _687  and  _689
REMARK  284  A    between atoms: _689  and  _690
REMARK  285  A    between atoms: _689  and  _692
REMARK  286  A    between atoms: _695  and  _697
REMARK  287  A    between atoms: _697  and  _698
REMARK  288  A    between atoms: _697  and  _700
REMARK  289  A    between atoms: _700  and  _701
REMARK  290  A    between atoms: _704  and  _706
REMARK  291  A    between atoms: _706  and  _707
REMARK  292  A    between atoms: _706  and  _709
REMARK  293  A    between atoms: _709  and  _710
REMARK                            x       y       z     vdW  Elec       q    Type
REMARK                         _______ _______ _______ _____ _____    ______ ____
ROOT
ATOM      1  CB  PHE A   1      71.676   8.333   0.567  0.00  0.00    +0.051 C 
ENDROOT
BRANCH   1   2
ATOM      2  CG  PHE A   1      70.486   7.937   1.424  0.00  0.00    -0.020 A 
ATOM      3  CD2 PHE A   1      70.642   7.302   2.656  0.00  0.00    -0.004 A 
ATOM      4  CE2 PHE A   1      69.523   6.946   3.427  0.00  0.00    -0.000 A 
ATOM      5  CZ  PHE A   1      68.251   7.232   2.963  0.00  0.00    -0.000 A 
ATOM      6  CE1 PHE A   1      68.083   7.857   1.732  0.00  0.00    -0.000 A 
ATOM      7  CD1 PHE A   1      69.204   8.210   0.974  0.00  0.00    -0.004 A 
ENDBRANCH   1   2
BRANCH   1   8
ATOM      8  CA  PHE A   1      73.018   8.426   1.315  0.00  0.00    +0.137 C 
BRANCH   8   9
ATOM      9  N   PHE A   1      72.961   9.327   2.472  0.00  0.00    -0.239 NA
ATOM     10  H   PHE A   1      72.210  10.044   2.532  0.00  0.00    +0.142 HD
ENDBRANCH   8   9
BRANCH   8  11
ATOM     11  C   PHE A   1      74.087   8.877   0.318  0.00  0.00    +0.224 C 
ATOM     12  O   PHE A   1      74.432  10.059   0.246  0.00  0.00    -0.287 OA
ENDBRANCH   8  11
ENDBRANCH   1   8
TORSDOF 4
REMARK  Name = ../refined-set-2016/2o4r/2o4r_pocket.pdb
REMARK  293 active torsions:
REMARK  status: ('A' for Active; 'I' for Inactive)
REMARK    1  A    between atoms: _1  and  _3
REMARK    2  A    between atoms: _3  and  _4
REMARK    3  A    between atoms: _3  and  _6
REMARK    4  A    between atoms: _6  and  _7
REMARK    5  A    between atoms: _10  and  _12
REMARK    6  A    between atoms: _12  and  _13
REMARK    7  A    between atoms: _12  and  _15
REMARK    8  A    between atoms: _15  and  _16
REMARK    9  A    between atoms: _21  and  _22
REMARK   10  A    between atoms: _24  and  _26
REMARK   11  A    between atoms: _26  and  _27
REMARK   12  A    between atoms: _26  and  _29
REMARK   13  A    between atoms: _29  and  _30
REMARK   14  A    between atoms: _34  and  _35
REMARK   15  A    between atoms: _40  and  _42
REMARK   16  A    between atoms: _42  and  _43
REMARK   17  A    between atoms: _42  and  _45
REMARK   18  A    between atoms: _45  and  _46
REMARK   19  A    between atoms: _51  and  _52
REMARK   20  A    between atoms: _54  and  _56
REMARK   21  A    between atoms: _56  and  _57
REMARK   22  A    between atoms: _56  and  _59
REMARK   23  A    between atoms: _59  and  _60
REMARK   24  A    between atoms: _66  and  _68
REMARK   25  A    between atoms: _68  and  _69
REMARK   26  A    between atoms: _68  and  _71
REMARK   27  A    between atoms: _71  and  _72
REMARK   28  A    between atoms: _78  and  _80
REMARK   29  A    between atoms: _80  and  _81
REMARK   30  A    between atoms: _80  and  _83
REMARK   31  A    between atoms: _83  and  _84
REMARK   32  A    between atoms: _84  and  _85
REMARK   33  A    between atoms: _85  and  _86
REMARK   34  A    between atoms: _95  and  _97
REMARK   35  A    between atoms: _97  and  _98
REMARK   36  A    between atoms: _97  and  _100
REMARK   37  A    between atoms: _100  and  _101
REMARK   38  A    between atoms: _101  and  _102
REMARK   39  A    between atoms: _104  and  _106
REMARK   40  A    between atoms: _106  and  _107
REMARK   41  A    between atoms: _106  and  _109
REMARK   42  A    between atoms: _109  and  _110
REMARK   43  A    between atoms: _114  and  _115
REMARK   44  A    between atoms: _120  and  _122
REMARK   45  A    between atoms: _122  and  _123
REMARK   46  A    between atoms: _122  and  _125
REMARK   47  A    between atoms: _125  and  _126
REMARK   48  A    between atoms: _131  and  _133
REMARK   49  A    between atoms: _133  and  _134
REMARK   50  A    between atoms: _133  and  _136
REMARK   51  A    between atoms: _136  and  _137
REMARK   52  A    between atoms: _140  and  _142
REMARK   53  A    between atoms: _142  and  _143
REMARK   54  A    between atoms: _146  and  _148
REMARK   55  A    between atoms: _148  and  _149
REMARK   56  A    between atoms: _148  and  _151
REMARK   57  A    between atoms: _151  and  _152
REMARK   58  A    between atoms: _155  and  _157
REMARK   59  A    between atoms: _157  and  _158
REMARK   60  A    between atoms: _157  and  _160
REMARK   61  A    between atoms: _160  and  _161
REMARK   62  A    between atoms: _164  and  _166
REMARK   63  A    between atoms: _166  and  _167
REMARK   64  A    between atoms: _166  and  _169
REMARK   65  A    between atoms: _172  and  _174
REMARK   66  A    between atoms: _174  and  _175
REMARK   67  A    between atoms: _174  and  _177
REMARK   68  A    between atoms: _177  and  _178
REMARK   69  A    between atoms: _180  and  _182
REMARK   70  A    between atoms: _182  and  _183
REMARK   71  A    between atoms: _182  and  _185
REMARK   72  A    between atoms: _185  and  _186
REMARK   73  A    between atoms: _191  and  _192
REMARK   74  A    between atoms: _194  and  _196
REMARK   75  A    between atoms: _196  and  _197
REMARK   76  A    between atoms: _196  and  _199
REMARK   77  A    between atoms: _199  and  _200
REMARK   78  A    between atoms: _202  and  _204
REMARK   79  A    between atoms: _204  and  _205
REMARK   80  A    between atoms: _204  and  _207
REMARK   81  A    between atoms: _207  and  _208
REMARK   82  A    between atoms: _211  and  _213
REMARK   83  A    between atoms: _213  and  _214
REMARK   84  A    between atoms: _213  and  _216
REMARK   85  A    between atoms: _216  and  _217
REMARK   86  A    between atoms: _217  and  _218
REMARK   87  A    between atoms: _218  and  _219
REMARK   88  A    between atoms: _219  and  _220
REMARK   89  A    between atoms: _224  and  _226
REMARK   90  A    between atoms: _226  and  _227
REMARK   91  A    between atoms: _226  and  _229
REMARK   92  A    between atoms: _232  and  _234
REMARK   93  A    between atoms: _234  and  _235
REMARK   94  A    between atoms: _238  and  _240
REMARK   95  A    between atoms: _240  and  _241
REMARK   96  A    between atoms: _240  and  _243
REMARK   97  A    between atoms: _243  and  _244
REMARK   98  A    between atoms: _247  and  _249
REMARK   99  A    between atoms: _249  and  _250
REMARK  100  A    between atoms: _249  and  _252
REMARK  101  A    between atoms: _252  and  _253
REMARK  102  A    between atoms: _253  and  _254
REMARK  103  A    between atoms: _257  and  _259
REMARK  104  A    between atoms: _259  and  _260
REMARK  105  A    between atoms: _259  and  _262
REMARK  106  A    between atoms: _265  and  _267
REMARK  107  A    between atoms: _267  and  _268
REMARK  108  A    between atoms: _267  and  _270
REMARK  109  A    between atoms: _270  and  _271
REMARK  110  A    between atoms: _274  and  _276
REMARK  111  A    between atoms: _276  and  _277
REMARK  112  A    between atoms: _276  and  _279
REMARK  113  A    between atoms: _279  and  _280
REMARK  114  A    between atoms: _280  and  _281
REMARK  115  A    between atoms: _283  and  _285
REMARK  116  A    between atoms: _285  and  _286
REMARK  117  A    between atoms: _285  and  _288
REMARK  118  A    between atoms: _288  and  _289
REMARK  119  A    between atoms: _292  and  _294
REMARK  120  A    between atoms: _294  and  _295
REMARK  121  A    between atoms: _294  and  _297
REMARK  122  A    between atoms: _297  and  _298
REMARK  123  A    between atoms: _298  and  _299
REMARK  124  A    between atoms: _299  and  _300
REMARK  125  A    between atoms: _309  and  _311
REMARK  126  A    between atoms: _311  and  _312
REMARK  127  A    between atoms: _311  and  _314
REMARK  128  A    between atoms: _314  and  _315
REMARK  129  A    between atoms: _317  and  _319
REMARK  130  A    between atoms: _319  and  _320
REMARK  131  A    between atoms: _319  and  _322
REMARK  132  A    between atoms: _322  and  _323
REMARK  133  A    between atoms: _328  and  _330
REMARK  134  A    between atoms: _330  and  _331
REMARK  135  A    between atoms: _330  and  _333
REMARK  136  A    between atoms: _333  and  _334
REMARK  137  A    between atoms: _334  and  _335
REMARK  138  A    between atoms: _340  and  _342
REMARK  139  A    between atoms: _342  and  _343
REMARK  140  A    between atoms: _342  and  _345
REMARK  141  A    between atoms: _345  and  _346
REMARK  142  A    between atoms: _348  and  _350
REMARK  143  A    between atoms: _350  and  _351
REMARK  144  A    between atoms: _350  and  _353
REMARK  145  A    between atoms: _353  and  _354
REMARK  146  A    between atoms: _360  and  _362
REMARK  147  A    between atoms: _362  and  _363
REMARK  148  A    between atoms: _362  and  _365
REMARK  149  A    between atoms: _365  and  _366
REMARK  150  A    between atoms: _368  and  _370
REMARK  151  A    between atoms: _370  and  _371
REMARK  152  A    between atoms: _370  and  _373
REMARK  153  A    between atoms: _373  and  _374
REMARK  154  A    between atoms: _384  and  _386
REMARK  155  A    between atoms: _386  and  _387
REMARK  156  A    between atoms: _386  and  _389
REMARK  157  A    between atoms: _389  and  _390
REMARK  158  A    between atoms: _393  and  _395
REMARK  159  A    between atoms: _395  and  _396
REMARK  160  A    between atoms: _395  and  _398
REMARK  161  A    between atoms: _400  and  _402
REMARK  162  A    between atoms: _402  and  _403
REMARK  163  A    between atoms: _402  and  _405
REMARK  164  A    between atoms: _405  and  _406
REMARK  165  A    between atoms: _411  and  _412
REMARK  166  A    between atoms: _414  and  _416
REMARK  167  A    between atoms: _416  and  _417
REMARK  168  A    between atoms: _416  and  _419
REMARK  169  A    between atoms: _419  and  _420
REMARK  170  A    between atoms: _420  and  _421
REMARK  171  A    between atoms: _421  and  _422
REMARK  172  A    between atoms: _422  and  _423
REMARK  173  A    between atoms: _427  and  _429
REMARK  174  A    between atoms: _429  and  _430
REMARK  175  A    between atoms: _429  and  _432
REMARK  176  A    between atoms: _432  and  _433
REMARK  177  A    between atoms: _438  and  _439
REMARK  178  A    between atoms: _441  and  _443
REMARK  179  A    between atoms: _443  and  _444
REMARK  180  A    between atoms: _443  and  _446
REMARK  181  A    between atoms: _446  and  _447
REMARK  182  A    between atoms: _450  and  _452
REMARK  183  A    between atoms: _452  and  _453
REMARK  184  A    between atoms: _452  and  _455
REMARK  185  A    between atoms: _458  and  _460
REMARK  186  A    between atoms: _460  and  _461
REMARK  187  A    between atoms: _460  and  _463
REMARK  188  A    between atoms: _463  and  _464
REMARK  189  A    between atoms: _467  and  _469
REMARK  190  A    between atoms: _469  and  _470
REMARK  191  A    between atoms: _469  and  _472
REMARK  192  A    between atoms: _475  and  _477
REMARK  193  A    between atoms: _477  and  _478
REMARK  194  A    between atoms: _477  and  _480
REMARK  195  A    between atoms: _480  and  _481
REMARK  196  A    between atoms: _483  and  _485
REMARK  197  A    between atoms: _485  and  _486
REMARK  198  A    between atoms: _485  and  _488
REMARK  199  A    between atoms: _488  and  _489
REMARK  200  A    between atoms: _489  and  _490
REMARK  201  A    between atoms: _490  and  _491
REMARK  202  A    between atoms: _491  and  _492
REMARK  203  A    between atoms: _496  and  _498
REMARK  204  A    between atoms: _498  and  _499
REMARK  205  A    between atoms: _502  and  _504
REMARK  206  A    between atoms: _504  and  _505
REMARK  207  A    between atoms: _507  and  _509
REMARK  208  A    between atoms: _509  and  _510
REMARK  209  A    between atoms: _509  and  _512
REMARK  210  A    between atoms: _512  and  _513
REMARK  211  A    between atoms: _518  and  _520
REMARK  212  A    between atoms: _520  and  _521
REMARK  213  A    between atoms: _520  and  _523
REMARK  214  A    between atoms: _523  and  _524
REMARK  215  A    between atoms: _527  and  _529
REMARK  216  A    between atoms: _529  and  _530
REMARK  217  A    between atoms: _529  and  _532
REMARK  218  A    between atoms: _532  and  _533
REMARK  219  A    between atoms: _536  and  _538
REMARK  220  A    between atoms: _538  and  _539
REMARK  221  A    between atoms: _538  and  _541
REMARK  222  A    between atoms: _541  and  _542
REMARK  223  A    between atoms: _545  and  _547
REMARK  224  A    between atoms: _547  and  _548
REMARK  225  A    between atoms: _547  and  _550
REMARK  226  A    between atoms: _550  and  _551
REMARK  227  A    between atoms: _554  and  _556
REMARK  228  A    between atoms: _556  and  _557
REMARK  229  A    between atoms: _556  and  _559
REMARK  230  A    between atoms: _559  and  _560
REMARK  231  A    between atoms: _560  and  _561
REMARK  232  A    between atoms: _566  and  _568
REMARK  233  A    between atoms: _568  and  _569
REMARK  234  A    between atoms: _568  and  _571
REMARK  235  A    between atoms: _571  and  _572
REMARK  236  A    between atoms: _577  and  _579
REMARK  237  A    between atoms: _579  and  _580
REMARK  238  A    between atoms: _579  and  _582
REMARK  239  A    between atoms: _582  and  _583
REMARK  240  A    between atoms: _585  and  _587
REMARK  241  A    between atoms: _587  and  _588
REMARK  242  A    between atoms: _587  and  _590
REMARK  243  A    between atoms: _590  and  _591
REMARK  244  A    between atoms: _591  and  _592
REMARK  245  A    between atoms: _597  and  _599
REMARK  246  A    between atoms: _599  and  _600
REMARK  247  A    between atoms: _599  and  _602
REMARK  248  A    between atoms: _602  and  _603
REMARK  249  A    between atoms: _608  and  _609
REMARK  250  A    between atoms: _611  and  _613
REMARK  251  A    between atoms: _613  and  _614
REMARK  252  A    between atoms: _613  and  _616
REMARK  253  A    between atoms: _616  and  _617
REMARK  254  A    between atoms: _617  and  _618
REMARK  255  A    between atoms: _618  and  _619
REMARK  256  A    between atoms: _628  and  _630
REMARK  257  A    between atoms: _630  and  _631
REMARK  258  A    between atoms: _630  and  _633
REMARK  259  A    between atoms: _633  and  _634
REMARK  260  A    between atoms: _637  and  _639
REMARK  261  A    between atoms: _639  and  _640
REMARK  262  A    between atoms: _639  and  _642
REMARK  263  A    between atoms: _642  and  _643
REMARK  264  A    between atoms: _645  and  _647
REMARK  265  A    between atoms: _647  and  _648
REMARK  266  A    between atoms: _647  and  _650
REMARK  267  A    between atoms: _650  and  _651
REMARK  268  A    between atoms: _656  and  _658
REMARK  269  A    between atoms: _658  and  _659
REMARK  270  A    between atoms: _658  and  _661
REMARK  271  A    between atoms: _661  and  _662
REMARK  272  A    between atoms: _662  and  _663
REMARK  273  A    between atoms: _663  and  _664
REMARK  274  A    between atoms: _664  and  _665
REMARK  275  A    between atoms: _669  and  _671
REMARK  276  A    between atoms: _671  and  _672
REMARK  277  A    between atoms: _671  and  _674
REMARK  278  A    between atoms: _674  and  _675
REMARK  279  A    between atoms: _678  and  _680
REMARK  280  A    between atoms: _680  and  _681
REMARK  281  A    between atoms: _680  and  _683
REMARK  282  A    between atoms: _683  and  _684
REMARK  283  A    between atoms: _687  and  _689
REMARK  284  A    between atoms: _689  and  _690
REMARK  285  A    between atoms: _689  and  _692
REMARK  286  A    between atoms: _695  and  _697
REMARK  287  A    between atoms: _697  and  _698
REMARK  288  A    between atoms: _697  and  _700
REMARK  289  A    between atoms: _700  and  _701
REMARK  290  A    between atoms: _704  and  _706
REMARK  291  A    between atoms: _706  and  _707
REMARK  292  A    between atoms: _706  and  _709
REMARK  293  A    between atoms: _709  and  _710
REMARK                            x       y       z     vdW  Elec       q    Type
REMARK                         _______ _______ _______ _____ _____    ______ ____
ROOT
ATOM      1  NE  ARG A   1      67.239  13.725  -9.679  0.00  0.00    -0.265 N 
ATOM      2  CZ  ARG A   1      67.332  13.874  -8.363  0.00  0.00    +0.342 C 
ATOM      3  NH2 ARG A   1      66.462  13.255  -7.571  0.00  0.00    -0.292 N 
ATOM      4 HH21 ARG A   1      66.528  13.366  -6.539  0.00  0.00    +0.255 HD
ATOM      5 HH22 ARG A   1      65.716  12.659  -7.983  0.00  0.00    +0.255 HD
ATOM      6  NH1 ARG A   1      68.281  14.634  -7.830  0.00  0.00    -0.292 N 
ATOM      7 HH11 ARG A   1      68.342  14.742  -6.797  0.00  0.00    +0.255 HD
ATOM      8 HH12 ARG A   1      68.963  15.122  -8.445  0.00  0.00    +0.255 HD
ATOM      9  HE  ARG A   1      66.468  13.126 -10.039  0.00  0.00    +0.259 HD
ENDROOT
BRANCH   1  10
ATOM     10  CD  ARG A   1      68.133  14.335 -10.664  0.00  0.00    +0.174 C 
BRANCH  10  11
ATOM     11  CG  ARG A   1      69.054  13.286 -11.247  0.00  0.00    +0.045 C 
BRANCH  11  12
ATOM     12  CB  ARG A   1      69.799  13.789 -12.483  0.00  0.00    +0.029 C 
BRANCH  12  13
ATOM     13  CA  ARG A   1      71.018  12.950 -12.864  0.00  0.00    +0.133 C 
BRANCH  13  14
ATOM     14  N   ARG A   1      71.944  12.900 -11.751  0.00  0.00    -0.239 NA
ATOM     15  H   ARG A   1      72.407  13.782 -11.451  0.00  0.00    +0.142 HD
ENDBRANCH  13  14
BRANCH  13  16
ATOM     16  C   ARG A   1      71.795  13.589 -14.012  0.00  0.00    +0.224 C 
ATOM     17  O   ARG A   1      72.019  14.799 -14.032  0.00  0.00    -0.287 OA
ENDBRANCH  13  16
ENDBRANCH  12  13
ENDBRANCH  11  12
ENDBRANCH  10  11
ENDBRANCH   1  10
TORSDOF 6
REMARK  Name = ../refined-set-2016/2o4r/2o4r_pocket.pdb
REMARK  293 active torsions:
REMARK  status: ('A' for Active; 'I' for Inactive)
REMARK    1  A    between atoms: _1  and  _3
REMARK    2  A    between atoms: _3  and  _4
REMARK    3  A    between atoms: _3  and  _6
REMARK    4  A    between atoms: _6  and  _7
REMARK    5  A    between atoms: _10  and  _12
REMARK    6  A    between atoms: _12  and  _13
REMARK    7  A    between atoms: _12  and  _15
REMARK    8  A    between atoms: _15  and  _16
REMARK    9  A    between atoms: _21  and  _22
REMARK   10  A    between atoms: _24  and  _26
REMARK   11  A    between atoms: _26  and  _27
REMARK   12  A    between atoms: _26  and  _29
REMARK   13  A    between atoms: _29  and  _30
REMARK   14  A    between atoms: _34  and  _35
REMARK   15  A    between atoms: _40  and  _42
REMARK   16  A    between atoms: _42  and  _43
REMARK   17  A    between atoms: _42  and  _45
REMARK   18  A    between atoms: _45  and  _46
REMARK   19  A    between atoms: _51  and  _52
REMARK   20  A    between atoms: _54  and  _56
REMARK   21  A    between atoms: _56  and  _57
REMARK   22  A    between atoms: _56  and  _59
REMARK   23  A    between atoms: _59  and  _60
REMARK   24  A    between atoms: _66  and  _68
REMARK   25  A    between atoms: _68  and  _69
REMARK   26  A    between atoms: _68  and  _71
REMARK   27  A    between atoms: _71  and  _72
REMARK   28  A    between atoms: _78  and  _80
REMARK   29  A    between atoms: _80  and  _81
REMARK   30  A    between atoms: _80  and  _83
REMARK   31  A    between atoms: _83  and  _84
REMARK   32  A    between atoms: _84  and  _85
REMARK   33  A    between atoms: _85  and  _86
REMARK   34  A    between atoms: _95  and  _97
REMARK   35  A    between atoms: _97  and  _98
REMARK   36  A    between atoms: _97  and  _100
REMARK   37  A    between atoms: _100  and  _101
REMARK   38  A    between atoms: _101  and  _102
REMARK   39  A    between atoms: _104  and  _106
REMARK   40  A    between atoms: _106  and  _107
REMARK   41  A    between atoms: _106  and  _109
REMARK   42  A    between atoms: _109  and  _110
REMARK   43  A    between atoms: _114  and  _115
REMARK   44  A    between atoms: _120  and  _122
REMARK   45  A    between atoms: _122  and  _123
REMARK   46  A    between atoms: _122  and  _125
REMARK   47  A    between atoms: _125  and  _126
REMARK   48  A    between atoms: _131  and  _133
REMARK   49  A    between atoms: _133  and  _134
REMARK   50  A    between atoms: _133  and  _136
REMARK   51  A    between atoms: _136  and  _137
REMARK   52  A    between atoms: _140  and  _142
REMARK   53  A    between atoms: _142  and  _143
REMARK   54  A    between atoms: _146  and  _148
REMARK   55  A    between atoms: _148  and  _149
REMARK   56  A    between atoms: _148  and  _151
REMARK   57  A    between atoms: _151  and  _152
REMARK   58  A    between atoms: _155  and  _157
REMARK   59  A    between atoms: _157  and  _158
REMARK   60  A    between atoms: _157  and  _160
REMARK   61  A    between atoms: _160  and  _161
REMARK   62  A    between atoms: _164  and  _166
REMARK   63  A    between atoms: _166  and  _167
REMARK   64  A    between atoms: _166  and  _169
REMARK   65  A    between atoms: _172  and  _174
REMARK   66  A    between atoms: _174  and  _175
REMARK   67  A    between atoms: _174  and  _177
REMARK   68  A    between atoms: _177  and  _178
REMARK   69  A    between atoms: _180  and  _182
REMARK   70  A    between atoms: _182  and  _183
REMARK   71  A    between atoms: _182  and  _185
REMARK   72  A    between atoms: _185  and  _186
REMARK   73  A    between atoms: _191  and  _192
REMARK   74  A    between atoms: _194  and  _196
REMARK   75  A    between atoms: _196  and  _197
REMARK   76  A    between atoms: _196  and  _199
REMARK   77  A    between atoms: _199  and  _200
REMARK   78  A    between atoms: _202  and  _204
REMARK   79  A    between atoms: _204  and  _205
REMARK   80  A    between atoms: _204  and  _207
REMARK   81  A    between atoms: _207  and  _208
REMARK   82  A    between atoms: _211  and  _213
REMARK   83  A    between atoms: _213  and  _214
REMARK   84  A    between atoms: _213  and  _216
REMARK   85  A    between atoms: _216  and  _217
REMARK   86  A    between atoms: _217  and  _218
REMARK   87  A    between atoms: _218  and  _219
REMARK   88  A    between atoms: _219  and  _220
REMARK   89  A    between atoms: _224  and  _226
REMARK   90  A    between atoms: _226  and  _227
REMARK   91  A    between atoms: _226  and  _229
REMARK   92  A    between atoms: _232  and  _234
REMARK   93  A    between atoms: _234  and  _235
REMARK   94  A    between atoms: _238  and  _240
REMARK   95  A    between atoms: _240  and  _241
REMARK   96  A    between atoms: _240  and  _243
REMARK   97  A    between atoms: _243  and  _244
REMARK   98  A    between atoms: _247  and  _249
REMARK   99  A    between atoms: _249  and  _250
REMARK  100  A    between atoms: _249  and  _252
REMARK  101  A    between atoms: _252  and  _253
REMARK  102  A    between atoms: _253  and  _254
REMARK  103  A    between atoms: _257  and  _259
REMARK  104  A    between atoms: _259  and  _260
REMARK  105  A    between atoms: _259  and  _262
REMARK  106  A    between atoms: _265  and  _267
REMARK  107  A    between atoms: _267  and  _268
REMARK  108  A    between atoms: _267  and  _270
REMARK  109  A    between atoms: _270  and  _271
REMARK  110  A    between atoms: _274  and  _276
REMARK  111  A    between atoms: _276  and  _277
REMARK  112  A    between atoms: _276  and  _279
REMARK  113  A    between atoms: _279  and  _280
REMARK  114  A    between atoms: _280  and  _281
REMARK  115  A    between atoms: _283  and  _285
REMARK  116  A    between atoms: _285  and  _286
REMARK  117  A    between atoms: _285  and  _288
REMARK  118  A    between atoms: _288  and  _289
REMARK  119  A    between atoms: _292  and  _294
REMARK  120  A    between atoms: _294  and  _295
REMARK  121  A    between atoms: _294  and  _297
REMARK  122  A    between atoms: _297  and  _298
REMARK  123  A    between atoms: _298  and  _299
REMARK  124  A    between atoms: _299  and  _300
REMARK  125  A    between atoms: _309  and  _311
REMARK  126  A    between atoms: _311  and  _312
REMARK  127  A    between atoms: _311  and  _314
REMARK  128  A    between atoms: _314  and  _315
REMARK  129  A    between atoms: _317  and  _319
REMARK  130  A    between atoms: _319  and  _320
REMARK  131  A    between atoms: _319  and  _322
REMARK  132  A    between atoms: _322  and  _323
REMARK  133  A    between atoms: _328  and  _330
REMARK  134  A    between atoms: _330  and  _331
REMARK  135  A    between atoms: _330  and  _333
REMARK  136  A    between atoms: _333  and  _334
REMARK  137  A    between atoms: _334  and  _335
REMARK  138  A    between atoms: _340  and  _342
REMARK  139  A    between atoms: _342  and  _343
REMARK  140  A    between atoms: _342  and  _345
REMARK  141  A    between atoms: _345  and  _346
REMARK  142  A    between atoms: _348  and  _350
REMARK  143  A    between atoms: _350  and  _351
REMARK  144  A    between atoms: _350  and  _353
REMARK  145  A    between atoms: _353  and  _354
REMARK  146  A    between atoms: _360  and  _362
REMARK  147  A    between atoms: _362  and  _363
REMARK  148  A    between atoms: _362  and  _365
REMARK  149  A    between atoms: _365  and  _366
REMARK  150  A    between atoms: _368  and  _370
REMARK  151  A    between atoms: _370  and  _371
REMARK  152  A    between atoms: _370  and  _373
REMARK  153  A    between atoms: _373  and  _374
REMARK  154  A    between atoms: _384  and  _386
REMARK  155  A    between atoms: _386  and  _387
REMARK  156  A    between atoms: _386  and  _389
REMARK  157  A    between atoms: _389  and  _390
REMARK  158  A    between atoms: _393  and  _395
REMARK  159  A    between atoms: _395  and  _396
REMARK  160  A    between atoms: _395  and  _398
REMARK  161  A    between atoms: _400  and  _402
REMARK  162  A    between atoms: _402  and  _403
REMARK  163  A    between atoms: _402  and  _405
REMARK  164  A    between atoms: _405  and  _406
REMARK  165  A    between atoms: _411  and  _412
REMARK  166  A    between atoms: _414  and  _416
REMARK  167  A    between atoms: _416  and  _417
REMARK  168  A    between atoms: _416  and  _419
REMARK  169  A    between atoms: _419  and  _420
REMARK  170  A    between atoms: _420  and  _421
REMARK  171  A    between atoms: _421  and  _422
REMARK  172  A    between atoms: _422  and  _423
REMARK  173  A    between atoms: _427  and  _429
REMARK  174  A    between atoms: _429  and  _430
REMARK  175  A    between atoms: _429  and  _432
REMARK  176  A    between atoms: _432  and  _433
REMARK  177  A    between atoms: _438  and  _439
REMARK  178  A    between atoms: _441  and  _443
REMARK  179  A    between atoms: _443  and  _444
REMARK  180  A    between atoms: _443  and  _446
REMARK  181  A    between atoms: _446  and  _447
REMARK  182  A    between atoms: _450  and  _452
REMARK  183  A    between atoms: _452  and  _453
REMARK  184  A    between atoms: _452  and  _455
REMARK  185  A    between atoms: _458  and  _460
REMARK  186  A    between atoms: _460  and  _461
REMARK  187  A    between atoms: _460  and  _463
REMARK  188  A    between atoms: _463  and  _464
REMARK  189  A    between atoms: _467  and  _469
REMARK  190  A    between atoms: _469  and  _470
REMARK  191  A    between atoms: _469  and  _472
REMARK  192  A    between atoms: _475  and  _477
REMARK  193  A    between atoms: _477  and  _478
REMARK  194  A    between atoms: _477  and  _480
REMARK  195  A    between atoms: _480  and  _481
REMARK  196  A    between atoms: _483  and  _485
REMARK  197  A    between atoms: _485  and  _486
REMARK  198  A    between atoms: _485  and  _488
REMARK  199  A    between atoms: _488  and  _489
REMARK  200  A    between atoms: _489  and  _490
REMARK  201  A    between atoms: _490  and  _491
REMARK  202  A    between atoms: _491  and  _492
REMARK  203  A    between atoms: _496  and  _498
REMARK  204  A    between atoms: _498  and  _499
REMARK  205  A    between atoms: _502  and  _504
REMARK  206  A    between atoms: _504  and  _505
REMARK  207  A    between atoms: _507  and  _509
REMARK  208  A    between atoms: _509  and  _510
REMARK  209  A    between atoms: _509  and  _512
REMARK  210  A    between atoms: _512  and  _513
REMARK  211  A    between atoms: _518  and  _520
REMARK  212  A    between atoms: _520  and  _521
REMARK  213  A    between atoms: _520  and  _523
REMARK  214  A    between atoms: _523  and  _524
REMARK  215  A    between atoms: _527  and  _529
REMARK  216  A    between atoms: _529  and  _530
REMARK  217  A    between atoms: _529  and  _532
REMARK  218  A    between atoms: _532  and  _533
REMARK  219  A    between atoms: _536  and  _538
REMARK  220  A    between atoms: _538  and  _539
REMARK  221  A    between atoms: _538  and  _541
REMARK  222  A    between atoms: _541  and  _542
REMARK  223  A    between atoms: _545  and  _547
REMARK  224  A    between atoms: _547  and  _548
REMARK  225  A    between atoms: _547  and  _550
REMARK  226  A    between atoms: _550  and  _551
REMARK  227  A    between atoms: _554  and  _556
REMARK  228  A    between atoms: _556  and  _557
REMARK  229  A    between atoms: _556  and  _559
REMARK  230  A    between atoms: _559  and  _560
REMARK  231  A    between atoms: _560  and  _561
REMARK  232  A    between atoms: _566  and  _568
REMARK  233  A    between atoms: _568  and  _569
REMARK  234  A    between atoms: _568  and  _571
REMARK  235  A    between atoms: _571  and  _572
REMARK  236  A    between atoms: _577  and  _579
REMARK  237  A    between atoms: _579  and  _580
REMARK  238  A    between atoms: _579  and  _582
REMARK  239  A    between atoms: _582  and  _583
REMARK  240  A    between atoms: _585  and  _587
REMARK  241  A    between atoms: _587  and  _588
REMARK  242  A    between atoms: _587  and  _590
REMARK  243  A    between atoms: _590  and  _591
REMARK  244  A    between atoms: _591  and  _592
REMARK  245  A    between atoms: _597  and  _599
REMARK  246  A    between atoms: _599  and  _600
REMARK  247  A    between atoms: _599  and  _602
REMARK  248  A    between atoms: _602  and  _603
REMARK  249  A    between atoms: _608  and  _609
REMARK  250  A    between atoms: _611  and  _613
REMARK  251  A    between atoms: _613  and  _614
REMARK  252  A    between atoms: _613  and  _616
REMARK  253  A    between atoms: _616  and  _617
REMARK  254  A    between atoms: _617  and  _618
REMARK  255  A    between atoms: _618  and  _619
REMARK  256  A    between atoms: _628  and  _630
REMARK  257  A    between atoms: _630  and  _631
REMARK  258  A    between atoms: _630  and  _633
REMARK  259  A    between atoms: _633  and  _634
REMARK  260  A    between atoms: _637  and  _639
REMARK  261  A    between atoms: _639  and  _640
REMARK  262  A    between atoms: _639  and  _642
REMARK  263  A    between atoms: _642  and  _643
REMARK  264  A    between atoms: _645  and  _647
REMARK  265  A    between atoms: _647  and  _648
REMARK  266  A    between atoms: _647  and  _650
REMARK  267  A    between atoms: _650  and  _651
REMARK  268  A    between atoms: _656  and  _658
REMARK  269  A    between atoms: _658  and  _659
REMARK  270  A    between atoms: _658  and  _661
REMARK  271  A    between atoms: _661  and  _662
REMARK  272  A    between atoms: _662  and  _663
REMARK  273  A    between atoms: _663  and  _664
REMARK  274  A    between atoms: _664  and  _665
REMARK  275  A    between atoms: _669  and  _671
REMARK  276  A    between atoms: _671  and  _672
REMARK  277  A    between atoms: _671  and  _674
REMARK  278  A    between atoms: _674  and  _675
REMARK  279  A    between atoms: _678  and  _680
REMARK  280  A    between atoms: _680  and  _681
REMARK  281  A    between atoms: _680  and  _683
REMARK  282  A    between atoms: _683  and  _684
REMARK  283  A    between atoms: _687  and  _689
REMARK  284  A    between atoms: _689  and  _690
REMARK  285  A    between atoms: _689  and  _692
REMARK  286  A    between atoms: _695  and  _697
REMARK  287  A    between atoms: _697  and  _698
REMARK  288  A    between atoms: _697  and  _700
REMARK  289  A    between atoms: _700  and  _701
REMARK  290  A    between atoms: _704  and  _706
REMARK  291  A    between atoms: _706  and  _707
REMARK  292  A    between atoms: _706  and  _709
REMARK  293  A    between atoms: _709  and  _710
REMARK                            x       y       z     vdW  Elec       q    Type
REMARK                         _______ _______ _______ _____ _____    ______ ____
ROOT
ATOM      1  CA  ASP A   7      70.727   3.439  -0.328  0.00  0.00    +0.160 C 
ENDROOT
BRANCH   1   2
ATOM      2  C   ASP A   7      69.394   3.819   0.275  0.00  0.00    +0.241 C 
ATOM      3  O   ASP A   7      69.131   3.508   1.427  0.00  0.00    -0.273 OA
ATOM      4  N   LEU A   8      68.551   4.497  -0.499  0.00  0.00    -0.297 N 
ATOM      5  H   LEU A   8      68.847   4.800  -1.449  0.00  0.00    +0.150 HD
BRANCH   4   6
ATOM      6  CA  LEU A   8      67.234   4.810  -0.024  0.00  0.00    +0.149 C 
BRANCH   6   7
ATOM      7  C   LEU A   8      66.394   3.562   0.207  0.00  0.00    +0.241 C 
ATOM      8  O   LEU A   8      65.694   3.465   1.212  0.00  0.00    -0.273 OA
ATOM      9  N   VAL A   9      66.443   2.625  -0.723  0.00  0.00    -0.297 N 
ATOM     10  H   VAL A   9      66.969   2.793  -1.604  0.00  0.00    +0.150 HD
BRANCH   9  11
ATOM     11  CA  VAL A   9      65.758   1.352  -0.512  0.00  0.00    +0.149 C 
BRANCH  11  12
ATOM     12  C   VAL A   9      66.334   0.603   0.720  0.00  0.00    +0.241 C 
ATOM     13  O   VAL A   9      65.579   0.081   1.541  0.00  0.00    -0.273 OA
ATOM     14  N   SER A  10      67.664   0.547   0.837  0.00  0.00    -0.295 N 
ATOM     15  H   SER A  10      68.261   0.992   0.111  0.00  0.00    +0.150 HD
BRANCH  14  16
ATOM     16  CA  SER A  10      68.302  -0.141   1.988  0.00  0.00    +0.178 C 
BRANCH  16  17
ATOM     17  C   SER A  10      67.836   0.432   3.322  0.00  0.00    +0.243 C 
ATOM     18  O   SER A  10      67.423  -0.298   4.222  0.00  0.00    -0.273 OA
ATOM     19  N   TYR A  11      67.912   1.750   3.424  0.00  0.00    -0.297 N 
ATOM     20  H   TYR A  11      68.332   2.279   2.633  0.00  0.00    +0.150 HD
BRANCH  19  21
ATOM     21  CA  TYR A  11      67.437   2.510   4.591  0.00  0.00    +0.153 C 
BRANCH  21  22
ATOM     22  C   TYR A  11      65.976   2.185   4.884  0.00  0.00    +0.241 C 
ATOM     23  O   TYR A  11      65.572   1.964   6.029  0.00  0.00    -0.273 OA
ATOM     24  N   SER A  12      65.180   2.129   3.818  0.00  0.00    -0.295 N 
ATOM     25  H   SER A  12      65.593   2.261   2.873  0.00  0.00    +0.150 HD
BRANCH  24  26
ATOM     26  CA  SER A  12      63.756   1.889   3.936  0.00  0.00    +0.178 C 
BRANCH  26  27
ATOM     27  C   SER A  12      63.456   0.485   4.447  0.00  0.00    +0.243 C 
ATOM     28  O   SER A  12      62.533   0.309   5.248  0.00  0.00    -0.273 OA
ATOM     29  N   ILE A  13      64.254  -0.500   4.020  0.00  0.00    -0.298 N 
ATOM     30  H   ILE A  13      64.993  -0.294   3.318  0.00  0.00    +0.150 HD
BRANCH  29  31
ATOM     31  CA  ILE A  13      64.101  -1.868   4.529  0.00  0.00    +0.137 C 
BRANCH  31  32
ATOM     32  CB  ILE A  13      65.097  -2.849   3.853  0.00  0.00    +0.026 C 
ATOM     33  CG2 ILE A  13      65.066  -4.214   4.492  0.00  0.00    +0.002 C 
BRANCH  32  34
ATOM     34  CG1 ILE A  13      64.767  -3.039   2.354  0.00  0.00    +0.002 C 
ATOM     35  CD1 ILE A  13      65.947  -3.686   1.584  0.00  0.00    +0.000 C 
ENDBRANCH  32  34
ENDBRANCH  31  32
BRANCH  31  36
ATOM     36  C   ILE A  13      64.327  -1.871   6.044  0.00  0.00    +0.227 C 
ATOM     37  O   ILE A  13      63.586  -2.513   6.777  0.00  0.00    -0.286 OA
ENDBRANCH  31  36
ENDBRANCH  29  31
ENDBRANCH  26  27
BRANCH  26  38
ATOM     38  CB  SER A  12      63.066   2.130   2.579  0.00  0.00    +0.166 C 
BRANCH  38  39
ATOM     39  OG  SER A  12      63.158   3.529   2.273  0.00  0.00    -0.380 OA
ATOM     40  H   SER A  12      64.111   3.793   2.223  0.00  0.00    +0.211 HD
ENDBRANCH  38  39
ENDBRANCH  26  38
ENDBRANCH  24  26
ENDBRANCH  21  22
BRANCH  21  41
ATOM     41  CB  TYR A  11      67.567   3.968   4.254  0.00  0.00    +0.055 C 
BRANCH  41  42
ATOM     42  CG  TYR A  11      66.962   4.938   5.263  0.00  0.00    -0.020 A 
ATOM     43  CD2 TYR A  11      67.707   5.382   6.347  0.00  0.00    -0.001 A 
ATOM     44  CE2 TYR A  11      67.169   6.295   7.282  0.00  0.00    +0.036 A 
ATOM     45  CZ  TYR A  11      65.888   6.795   7.105  0.00  0.00    +0.134 A 
ATOM     46  CE1 TYR A  11      65.132   6.397   6.017  0.00  0.00    +0.036 A 
ATOM     47  CD1 TYR A  11      65.676   5.439   5.100  0.00  0.00    -0.001 A 
BRANCH  45  48
ATOM     48  OH  TYR A  11      65.377   7.733   8.010  0.00  0.00    -0.506 OA
ATOM     49  HH  TYR A  11      66.045   7.901   8.721  0.00  0.00    +0.292 HD
ENDBRANCH  45  48
ENDBRANCH  41  42
ENDBRANCH  21  41
ENDBRANCH  19  21
ENDBRANCH  16  17
BRANCH  16  50
ATOM     50  CB  SER A  10      69.829  -0.082   1.902  0.00  0.00    +0.166 C 
BRANCH  50  51
ATOM     51  OG  SER A  10      70.378  -1.203   2.597  0.00  0.00    -0.380 OA
ATOM     52  H   SER A  10      70.095  -1.173   3.545  0.00  0.00    +0.211 HD
ENDBRANCH  50  51
ENDBRANCH  16  50
ENDBRANCH  14  16
ENDBRANCH  11  12
BRANCH  11  53
ATOM     53  CB  VAL A   9      65.833   0.461  -1.774  0.00  0.00    +0.027 C 
ATOM     54  CG2 VAL A   9      65.345  -0.940  -1.460  0.00  0.00    +0.002 C 
ATOM     55  CG1 VAL A   9      65.039   1.078  -2.938  0.00  0.00    +0.002 C 
ENDBRANCH  11  53
ENDBRANCH   9  11
ENDBRANCH   6   7
BRANCH   6  56
ATOM     56  CB  LEU A   8      66.512   5.805  -0.951  0.00  0.00    +0.029 C 
BRANCH  56  57
ATOM     57  CG  LEU A   8      65.004   5.966  -0.740  0.00  0.00    +0.002 C 
ATOM     58  CD2 LEU A   8      64.705   6.543   0.672  0.00  0.00    +0.000 C 
ATOM     59  CD1 LEU A   8      64.429   6.843  -1.861  0.00  0.00    +0.000 C 
ENDBRANCH  56  57
ENDBRANCH   6  56
ENDBRANCH   4   6
ENDBRANCH   1   2
BRANCH   1  62
ATOM     60  C   ALA A   6      69.912   1.923  -2.062  0.00  0.00    +0.241 C 
ATOM     61  O   ALA A   6      69.438   1.165  -1.236  0.00  0.00    -0.273 OA
ATOM     62  N   ASP A   7      70.564   3.043  -1.724  0.00  0.00    -0.297 N 
ATOM     63  H   ASP A   7      70.963   3.644  -2.473  0.00  0.00    +0.150 HD
BRANCH  60  64
ATOM     64  CA  ALA A   6      69.744   1.631  -3.572  0.00  0.00    +0.149 C 
ATOM     65  CB  ALA A   6      70.986   0.952  -4.119  0.00  0.00    +0.031 C 
BRANCH  64  68
ATOM     66  C   LEU A   5      68.304   3.549  -4.108  0.00  0.00    +0.241 C 
ATOM     67  O   LEU A   5      67.426   3.153  -3.348  0.00  0.00    -0.273 OA
ATOM     68  N   ALA A   6      69.441   2.876  -4.315  0.00  0.00    -0.297 N 
ATOM     69  H   ALA A   6      70.126   3.234  -5.011  0.00  0.00    +0.150 HD
BRANCH  66  70
ATOM     70  CA  LEU A   5      68.158   4.912  -4.773  0.00  0.00    +0.149 C 
BRANCH  70  73
ATOM     71  C   HIS A   4      70.059   6.162  -3.935  0.00  0.00    +0.241 C 
ATOM     72  O   HIS A   4      69.661   6.064  -2.789  0.00  0.00    -0.273 OA
ATOM     73  N   LEU A   5      69.442   5.589  -4.963  0.00  0.00    -0.297 N 
ATOM     74  H   LEU A   5      69.874   5.622  -5.908  0.00  0.00    +0.150 HD
BRANCH  71  75
ATOM     75  CA  HIS A   4      71.325   6.942  -4.235  0.00  0.00    +0.155 C 
BRANCH  75  78
ATOM     76  C   PRO A   3      72.740   5.042  -4.722  0.00  0.00    +0.241 C 
ATOM     77  O   PRO A   3      72.535   4.555  -3.614  0.00  0.00    -0.273 OA
ATOM     78  N   HIS A   4      72.188   6.185  -5.113  0.00  0.00    -0.297 N 
ATOM     79  H   HIS A   4      72.381   6.543  -6.070  0.00  0.00    +0.150 HD
BRANCH  76  83
ATOM     80  C   LEU A   2      71.888   3.582  -7.250  0.00  0.00    +0.244 C 
ATOM     81  O   LEU A   2      71.335   3.025  -6.317  0.00  0.00    -0.273 OA
ATOM     82  N   PRO A   3      73.083   4.214  -7.101  0.00  0.00    -0.272 N 
ATOM     83  CA  PRO A   3      73.658   4.320  -5.729  0.00  0.00    +0.152 C 
ATOM     84  CB  PRO A   3      74.956   5.126  -5.943  0.00  0.00    +0.031 C 
ATOM     85  CG  PRO A   3      75.354   4.830  -7.395  0.00  0.00    +0.024 C 
ATOM     86  CD  PRO A   3      73.986   4.812  -8.112  0.00  0.00    +0.094 C 
BRANCH  80  87
ATOM     87  CA  LEU A   2      71.210   3.524  -8.650  0.00  0.00    +0.149 C 
BRANCH  87  90
ATOM     88  C   MET A   1      70.533   5.836  -8.925  0.00  0.00    +0.238 C 
ATOM     89  O   MET A   1      69.965   5.805  -7.837  0.00  0.00    -0.274 OA
ATOM     90  N   LEU A   2      71.161   4.778  -9.416  0.00  0.00    -0.297 N 
ATOM     91  H   LEU A   2      71.621   4.835 -10.347  0.00  0.00    +0.150 HD
BRANCH  88  92
ATOM     92  CA  MET A   1      70.535   7.118  -9.777  0.00  0.00    +0.146 C 
BRANCH  92  93
ATOM     93  N   MET A   1      71.314   6.957 -11.021  0.00  0.00    -0.238 NA
ATOM     94  H   MET A   1      70.852   6.575 -11.871  0.00  0.00    +0.142 HD
ENDBRANCH  92  93
BRANCH  92  95
ATOM     95  CB  MET A   1      69.098   7.568 -10.093  0.00  0.00    +0.038 C 
BRANCH  95  96
ATOM     96  CG  MET A   1      68.958   9.034 -10.448  0.00  0.00    +0.060 C 
BRANCH  96  97
ATOM     97  SD  MET A   1      69.402  10.097  -9.067  0.00  0.00    -0.139 S 
ATOM     98  CE  MET A   1      67.971   9.885  -7.986  0.00  0.00    +0.069 C 
ENDBRANCH  96  97
ENDBRANCH  95  96
ENDBRANCH  92  95
ENDBRANCH  88  92
ENDBRANCH  87  90
BRANCH  87  99
ATOM     99  CB  LEU A   2      71.748   2.358  -9.468  0.00  0.00    +0.029 C 
BRANCH  99 100
ATOM    100  CG  LEU A   2      71.723   0.971  -8.791  0.00  0.00    +0.002 C 
ATOM    101  CD2 LEU A   2      70.293   0.513  -8.453  0.00  0.00    +0.000 C 
ATOM    102  CD1 LEU A   2      72.427  -0.061  -9.659  0.00  0.00    +0.000 C 
ENDBRANCH  99 100
ENDBRANCH  87  99
ENDBRANCH  80  87
ENDBRANCH  76  83
ENDBRANCH  75  78
BRANCH  75 103
ATOM    103  CB  HIS A   4      70.994   8.330  -4.816  0.00  0.00    +0.076 C 
BRANCH 103 104
ATOM    104  CG  HIS A   4      70.080   9.140  -3.941  0.00  0.00    +0.082 A 
ATOM    105  ND1 HIS A   4      70.497   9.731  -2.764  0.00  0.00    -0.227 NA
ATOM    106  CE1 HIS A   4      69.476  10.345  -2.196  0.00  0.00    +0.199 A 
ATOM    107  NE2 HIS A   4      68.409  10.164  -2.955  0.00  0.00    -0.221 NA
ATOM    108  CD2 HIS A   4      68.762   9.422  -4.055  0.00  0.00    +0.115 A 
ENDBRANCH 103 104
ENDBRANCH  75 103
ENDBRANCH  71  75
ENDBRANCH  70  73
BRANCH  70 109
ATOM    109  CB  LEU A   5      67.350   4.847  -6.092  0.00  0.00    +0.029 C 
BRANCH 109 110
ATOM    110  CG  LEU A   5      66.806   6.206  -6.543  0.00  0.00    +0.002 C 
ATOM    111  CD2 LEU A   5      65.964   6.927  -5.440  0.00  0.00    +0.000 C 
ATOM    112  CD1 LEU A   5      65.988   6.004  -7.830  0.00  0.00    +0.000 C 
ENDBRANCH 109 110
ENDBRANCH  70 109
ENDBRANCH  66  70
ENDBRANCH  64  68
ENDBRANCH  60  64
ENDBRANCH   1  62
BRANCH   1 113
ATOM    113  CB  ASP A   7      71.670   4.624  -0.179  0.00  0.00    +0.143 C 
BRANCH 113 114
ATOM    114  CG  ASP A   7      73.128   4.246  -0.280  0.00  0.00    +0.367 C 
ATOM    115  OD2 ASP A   7      73.484   3.038  -0.301  0.00  0.00    -0.246 OA
ATOM    116  OD1 ASP A   7      73.927   5.210  -0.347  0.00  0.00    -0.246 OA
ENDBRANCH 113 114
ENDBRANCH   1 113
TORSDOF 48
REMARK  Name = ../refined-set-2016/2o4r/2o4r_pocket.pdb
REMARK  293 active torsions:
REMARK  status: ('A' for Active; 'I' for Inactive)
REMARK    1  A    between atoms: _1  and  _3
REMARK    2  A    between atoms: _3  and  _4
REMARK    3  A    between atoms: _3  and  _6
REMARK    4  A    between atoms: _6  and  _7
REMARK    5  A    between atoms: _10  and  _12
REMARK    6  A    between atoms: _12  and  _13
REMARK    7  A    between atoms: _12  and  _15
REMARK    8  A    between atoms: _15  and  _16
REMARK    9  A    between atoms: _21  and  _22
REMARK   10  A    between atoms: _24  and  _26
REMARK   11  A    between atoms: _26  and  _27
REMARK   12  A    between atoms: _26  and  _29
REMARK   13  A    between atoms: _29  and  _30
REMARK   14  A    between atoms: _34  and  _35
REMARK   15  A    between atoms: _40  and  _42
REMARK   16  A    between atoms: _42  and  _43
REMARK   17  A    between atoms: _42  and  _45
REMARK   18  A    between atoms: _45  and  _46
REMARK   19  A    between atoms: _51  and  _52
REMARK   20  A    between atoms: _54  and  _56
REMARK   21  A    between atoms: _56  and  _57
REMARK   22  A    between atoms: _56  and  _59
REMARK   23  A    between atoms: _59  and  _60
REMARK   24  A    between atoms: _66  and  _68
REMARK   25  A    between atoms: _68  and  _69
REMARK   26  A    between atoms: _68  and  _71
REMARK   27  A    between atoms: _71  and  _72
REMARK   28  A    between atoms: _78  and  _80
REMARK   29  A    between atoms: _80  and  _81
REMARK   30  A    between atoms: _80  and  _83
REMARK   31  A    between atoms: _83  and  _84
REMARK   32  A    between atoms: _84  and  _85
REMARK   33  A    between atoms: _85  and  _86
REMARK   34  A    between atoms: _95  and  _97
REMARK   35  A    between atoms: _97  and  _98
REMARK   36  A    between atoms: _97  and  _100
REMARK   37  A    between atoms: _100  and  _101
REMARK   38  A    between atoms: _101  and  _102
REMARK   39  A    between atoms: _104  and  _106
REMARK   40  A    between atoms: _106  and  _107
REMARK   41  A    between atoms: _106  and  _109
REMARK   42  A    between atoms: _109  and  _110
REMARK   43  A    between atoms: _114  and  _115
REMARK   44  A    between atoms: _120  and  _122
REMARK   45  A    between atoms: _122  and  _123
REMARK   46  A    between atoms: _122  and  _125
REMARK   47  A    between atoms: _125  and  _126
REMARK   48  A    between atoms: _131  and  _133
REMARK   49  A    between atoms: _133  and  _134
REMARK   50  A    between atoms: _133  and  _136
REMARK   51  A    between atoms: _136  and  _137
REMARK   52  A    between atoms: _140  and  _142
REMARK   53  A    between atoms: _142  and  _143
REMARK   54  A    between atoms: _146  and  _148
REMARK   55  A    between atoms: _148  and  _149
REMARK   56  A    between atoms: _148  and  _151
REMARK   57  A    between atoms: _151  and  _152
REMARK   58  A    between atoms: _155  and  _157
REMARK   59  A    between atoms: _157  and  _158
REMARK   60  A    between atoms: _157  and  _160
REMARK   61  A    between atoms: _160  and  _161
REMARK   62  A    between atoms: _164  and  _166
REMARK   63  A    between atoms: _166  and  _167
REMARK   64  A    between atoms: _166  and  _169
REMARK   65  A    between atoms: _172  and  _174
REMARK   66  A    between atoms: _174  and  _175
REMARK   67  A    between atoms: _174  and  _177
REMARK   68  A    between atoms: _177  and  _178
REMARK   69  A    between atoms: _180  and  _182
REMARK   70  A    between atoms: _182  and  _183
REMARK   71  A    between atoms: _182  and  _185
REMARK   72  A    between atoms: _185  and  _186
REMARK   73  A    between atoms: _191  and  _192
REMARK   74  A    between atoms: _194  and  _196
REMARK   75  A    between atoms: _196  and  _197
REMARK   76  A    between atoms: _196  and  _199
REMARK   77  A    between atoms: _199  and  _200
REMARK   78  A    between atoms: _202  and  _204
REMARK   79  A    between atoms: _204  and  _205
REMARK   80  A    between atoms: _204  and  _207
REMARK   81  A    between atoms: _207  and  _208
REMARK   82  A    between atoms: _211  and  _213
REMARK   83  A    between atoms: _213  and  _214
REMARK   84  A    between atoms: _213  and  _216
REMARK   85  A    between atoms: _216  and  _217
REMARK   86  A    between atoms: _217  and  _218
REMARK   87  A    between atoms: _218  and  _219
REMARK   88  A    between atoms: _219  and  _220
REMARK   89  A    between atoms: _224  and  _226
REMARK   90  A    between atoms: _226  and  _227
REMARK   91  A    between atoms: _226  and  _229
REMARK   92  A    between atoms: _232  and  _234
REMARK   93  A    between atoms: _234  and  _235
REMARK   94  A    between atoms: _238  and  _240
REMARK   95  A    between atoms: _240  and  _241
REMARK   96  A    between atoms: _240  and  _243
REMARK   97  A    between atoms: _243  and  _244
REMARK   98  A    between atoms: _247  and  _249
REMARK   99  A    between atoms: _249  and  _250
REMARK  100  A    between atoms: _249  and  _252
REMARK  101  A    between atoms: _252  and  _253
REMARK  102  A    between atoms: _253  and  _254
REMARK  103  A    between atoms: _257  and  _259
REMARK  104  A    between atoms: _259  and  _260
REMARK  105  A    between atoms: _259  and  _262
REMARK  106  A    between atoms: _265  and  _267
REMARK  107  A    between atoms: _267  and  _268
REMARK  108  A    between atoms: _267  and  _270
REMARK  109  A    between atoms: _270  and  _271
REMARK  110  A    between atoms: _274  and  _276
REMARK  111  A    between atoms: _276  and  _277
REMARK  112  A    between atoms: _276  and  _279
REMARK  113  A    between atoms: _279  and  _280
REMARK  114  A    between atoms: _280  and  _281
REMARK  115  A    between atoms: _283  and  _285
REMARK  116  A    between atoms: _285  and  _286
REMARK  117  A    between atoms: _285  and  _288
REMARK  118  A    between atoms: _288  and  _289
REMARK  119  A    between atoms: _292  and  _294
REMARK  120  A    between atoms: _294  and  _295
REMARK  121  A    between atoms: _294  and  _297
REMARK  122  A    between atoms: _297  and  _298
REMARK  123  A    between atoms: _298  and  _299
REMARK  124  A    between atoms: _299  and  _300
REMARK  125  A    between atoms: _309  and  _311
REMARK  126  A    between atoms: _311  and  _312
REMARK  127  A    between atoms: _311  and  _314
REMARK  128  A    between atoms: _314  and  _315
REMARK  129  A    between atoms: _317  and  _319
REMARK  130  A    between atoms: _319  and  _320
REMARK  131  A    between atoms: _319  and  _322
REMARK  132  A    between atoms: _322  and  _323
REMARK  133  A    between atoms: _328  and  _330
REMARK  134  A    between atoms: _330  and  _331
REMARK  135  A    between atoms: _330  and  _333
REMARK  136  A    between atoms: _333  and  _334
REMARK  137  A    between atoms: _334  and  _335
REMARK  138  A    between atoms: _340  and  _342
REMARK  139  A    between atoms: _342  and  _343
REMARK  140  A    between atoms: _342  and  _345
REMARK  141  A    between atoms: _345  and  _346
REMARK  142  A    between atoms: _348  and  _350
REMARK  143  A    between atoms: _350  and  _351
REMARK  144  A    between atoms: _350  and  _353
REMARK  145  A    between atoms: _353  and  _354
REMARK  146  A    between atoms: _360  and  _362
REMARK  147  A    between atoms: _362  and  _363
REMARK  148  A    between atoms: _362  and  _365
REMARK  149  A    between atoms: _365  and  _366
REMARK  150  A    between atoms: _368  and  _370
REMARK  151  A    between atoms: _370  and  _371
REMARK  152  A    between atoms: _370  and  _373
REMARK  153  A    between atoms: _373  and  _374
REMARK  154  A    between atoms: _384  and  _386
REMARK  155  A    between atoms: _386  and  _387
REMARK  156  A    between atoms: _386  and  _389
REMARK  157  A    between atoms: _389  and  _390
REMARK  158  A    between atoms: _393  and  _395
REMARK  159  A    between atoms: _395  and  _396
REMARK  160  A    between atoms: _395  and  _398
REMARK  161  A    between atoms: _400  and  _402
REMARK  162  A    between atoms: _402  and  _403
REMARK  163  A    between atoms: _402  and  _405
REMARK  164  A    between atoms: _405  and  _406
REMARK  165  A    between atoms: _411  and  _412
REMARK  166  A    between atoms: _414  and  _416
REMARK  167  A    between atoms: _416  and  _417
REMARK  168  A    between atoms: _416  and  _419
REMARK  169  A    between atoms: _419  and  _420
REMARK  170  A    between atoms: _420  and  _421
REMARK  171  A    between atoms: _421  and  _422
REMARK  172  A    between atoms: _422  and  _423
REMARK  173  A    between atoms: _427  and  _429
REMARK  174  A    between atoms: _429  and  _430
REMARK  175  A    between atoms: _429  and  _432
REMARK  176  A    between atoms: _432  and  _433
REMARK  177  A    between atoms: _438  and  _439
REMARK  178  A    between atoms: _441  and  _443
REMARK  179  A    between atoms: _443  and  _444
REMARK  180  A    between atoms: _443  and  _446
REMARK  181  A    between atoms: _446  and  _447
REMARK  182  A    between atoms: _450  and  _452
REMARK  183  A    between atoms: _452  and  _453
REMARK  184  A    between atoms: _452  and  _455
REMARK  185  A    between atoms: _458  and  _460
REMARK  186  A    between atoms: _460  and  _461
REMARK  187  A    between atoms: _460  and  _463
REMARK  188  A    between atoms: _463  and  _464
REMARK  189  A    between atoms: _467  and  _469
REMARK  190  A    between atoms: _469  and  _470
REMARK  191  A    between atoms: _469  and  _472
REMARK  192  A    between atoms: _475  and  _477
REMARK  193  A    between atoms: _477  and  _478
REMARK  194  A    between atoms: _477  and  _480
REMARK  195  A    between atoms: _480  and  _481
REMARK  196  A    between atoms: _483  and  _485
REMARK  197  A    between atoms: _485  and  _486
REMARK  198  A    between atoms: _485  and  _488
REMARK  199  A    between atoms: _488  and  _489
REMARK  200  A    between atoms: _489  and  _490
REMARK  201  A    between atoms: _490  and  _491
REMARK  202  A    between atoms: _491  and  _492
REMARK  203  A    between atoms: _496  and  _498
REMARK  204  A    between atoms: _498  and  _499
REMARK  205  A    between atoms: _502  and  _504
REMARK  206  A    between atoms: _504  and  _505
REMARK  207  A    between atoms: _507  and  _509
REMARK  208  A    between atoms: _509  and  _510
REMARK  209  A    between atoms: _509  and  _512
REMARK  210  A    between atoms: _512  and  _513
REMARK  211  A    between atoms: _518  and  _520
REMARK  212  A    between atoms: _520  and  _521
REMARK  213  A    between atoms: _520  and  _523
REMARK  214  A    between atoms: _523  and  _524
REMARK  215  A    between atoms: _527  and  _529
REMARK  216  A    between atoms: _529  and  _530
REMARK  217  A    between atoms: _529  and  _532
REMARK  218  A    between atoms: _532  and  _533
REMARK  219  A    between atoms: _536  and  _538
REMARK  220  A    between atoms: _538  and  _539
REMARK  221  A    between atoms: _538  and  _541
REMARK  222  A    between atoms: _541  and  _542
REMARK  223  A    between atoms: _545  and  _547
REMARK  224  A    between atoms: _547  and  _548
REMARK  225  A    between atoms: _547  and  _550
REMARK  226  A    between atoms: _550  and  _551
REMARK  227  A    between atoms: _554  and  _556
REMARK  228  A    between atoms: _556  and  _557
REMARK  229  A    between atoms: _556  and  _559
REMARK  230  A    between atoms: _559  and  _560
REMARK  231  A    between atoms: _560  and  _561
REMARK  232  A    between atoms: _566  and  _568
REMARK  233  A    between atoms: _568  and  _569
REMARK  234  A    between atoms: _568  and  _571
REMARK  235  A    between atoms: _571  and  _572
REMARK  236  A    between atoms: _577  and  _579
REMARK  237  A    between atoms: _579  and  _580
REMARK  238  A    between atoms: _579  and  _582
REMARK  239  A    between atoms: _582  and  _583
REMARK  240  A    between atoms: _585  and  _587
REMARK  241  A    between atoms: _587  and  _588
REMARK  242  A    between atoms: _587  and  _590
REMARK  243  A    between atoms: _590  and  _591
REMARK  244  A    between atoms: _591  and  _592
REMARK  245  A    between atoms: _597  and  _599
REMARK  246  A    between atoms: _599  and  _600
REMARK  247  A    between atoms: _599  and  _602
REMARK  248  A    between atoms: _602  and  _603
REMARK  249  A    between atoms: _608  and  _609
REMARK  250  A    between atoms: _611  and  _613
REMARK  251  A    between atoms: _613  and  _614
REMARK  252  A    between atoms: _613  and  _616
REMARK  253  A    between atoms: _616  and  _617
REMARK  254  A    between atoms: _617  and  _618
REMARK  255  A    between atoms: _618  and  _619
REMARK  256  A    between atoms: _628  and  _630
REMARK  257  A    between atoms: _630  and  _631
REMARK  258  A    between atoms: _630  and  _633
REMARK  259  A    between atoms: _633  and  _634
REMARK  260  A    between atoms: _637  and  _639
REMARK  261  A    between atoms: _639  and  _640
REMARK  262  A    between atoms: _639  and  _642
REMARK  263  A    between atoms: _642  and  _643
REMARK  264  A    between atoms: _645  and  _647
REMARK  265  A    between atoms: _647  and  _648
REMARK  266  A    between atoms: _647  and  _650
REMARK  267  A    between atoms: _650  and  _651
REMARK  268  A    between atoms: _656  and  _658
REMARK  269  A    between atoms: _658  and  _659
REMARK  270  A    between atoms: _658  and  _661
REMARK  271  A    between atoms: _661  and  _662
REMARK  272  A    between atoms: _662  and  _663
REMARK  273  A    between atoms: _663  and  _664
REMARK  274  A    between atoms: _664  and  _665
REMARK  275  A    between atoms: _669  and  _671
REMARK  276  A    between atoms: _671  and  _672
REMARK  277  A    between atoms: _671  and  _674
REMARK  278  A    between atoms: _674  and  _675
REMARK  279  A    between atoms: _678  and  _680
REMARK  280  A    between atoms: _680  and  _681
REMARK  281  A    between atoms: _680  and  _683
REMARK  282  A    between atoms: _683  and  _684
REMARK  283  A    between atoms: _687  and  _689
REMARK  284  A    between atoms: _689  and  _690
REMARK  285  A    between atoms: _689  and  _692
REMARK  286  A    between atoms: _695  and  _697
REMARK  287  A    between atoms: _697  and  _698
REMARK  288  A    between atoms: _697  and  _700
REMARK  289  A    between atoms: _700  and  _701
REMARK  290  A    between atoms: _704  and  _706
REMARK  291  A    between atoms: _706  and  _707
REMARK  292  A    between atoms: _706  and  _709
REMARK  293  A    between atoms: _709  and  _710
REMARK                            x       y       z     vdW  Elec       q    Type
REMARK                         _______ _______ _______ _____ _____    ______ ____
ROOT
ATOM      1  CA  LYS A   1      62.670   1.120   8.800  0.00  0.00    +0.145 C 
ENDROOT
BRANCH   1   2
ATOM      2  C   LYS A   1      61.439   0.245   8.766  0.00  0.00    +0.238 C 
ATOM      3  O   LYS A   1      60.663   0.220   9.726  0.00  0.00    -0.274 OA
ATOM      4  N   VAL A   2      61.222  -0.425   7.639  0.00  0.00    -0.298 N 
ATOM      5  H   VAL A   2      61.857  -0.277   6.829  0.00  0.00    +0.150 HD
BRANCH   4   6
ATOM      6  CA  VAL A   2      60.108  -1.367   7.513  0.00  0.00    +0.137 C 
BRANCH   6   7
ATOM      7  CB  VAL A   2      60.017  -1.942   6.080  0.00  0.00    +0.026 C 
ATOM      8  CG2 VAL A   2      59.111  -3.149   6.057  0.00  0.00    +0.002 C 
ATOM      9  CG1 VAL A   2      59.482  -0.869   5.158  0.00  0.00    +0.002 C 
ENDBRANCH   6   7
BRANCH   6  10
ATOM     10  C   VAL A   2      60.251  -2.473   8.572  0.00  0.00    +0.227 C 
ATOM     11  O   VAL A   2      59.261  -2.840   9.224  0.00  0.00    -0.286 OA
ENDBRANCH   6  10
ENDBRANCH   4   6
ENDBRANCH   1   2
BRANCH   1  12
ATOM     12  N   LYS A   1      63.830   0.485   8.178  0.00  0.00    -0.238 NA
ATOM     13  H   LYS A   1      64.189   0.866   7.279  0.00  0.00    +0.142 HD
ENDBRANCH   1  12
BRANCH   1  14
ATOM     14  CB  LYS A   1      62.384   2.460   8.115  0.00  0.00    +0.026 C 
BRANCH  14  15
ATOM     15  CG  LYS A   1      63.553   3.442   8.233  0.00  0.00    -0.000 C 
BRANCH  15  16
ATOM     16  CD  LYS A   1      63.918   3.705   9.716  0.00  0.00    -0.024 C 
BRANCH  16  17
ATOM     17  CE  LYS A   1      65.232   4.481   9.822  0.00  0.00    -0.086 C 
BRANCH  17  18
ATOM     18  NZ  LYS A   1      65.600   4.776  11.231  0.00  0.00    +0.380 N 
ATOM     19  HZ1 LYS A   1      65.709   3.884  11.754  0.00  0.00    -0.089 HD
ATOM     20  HZ2 LYS A   1      64.851   5.348  11.671  0.00  0.00    -0.089 HD
ATOM     21  HZ3 LYS A   1      66.497   5.303  11.251  0.00  0.00    -0.089 HD
ENDBRANCH  17  18
ENDBRANCH  16  17
ENDBRANCH  15  16
ENDBRANCH  14  15
ENDBRANCH   1  14
TORSDOF 10
REMARK  Name = ../refined-set-2016/2o4r/2o4r_pocket.pdb
REMARK  293 active torsions:
REMARK  status: ('A' for Active; 'I' for Inactive)
REMARK    1  A    between atoms: _1  and  _3
REMARK    2  A    between atoms: _3  and  _4
REMARK    3  A    between atoms: _3  and  _6
REMARK    4  A    between atoms: _6  and  _7
REMARK    5  A    between atoms: _10  and  _12
REMARK    6  A    between atoms: _12  and  _13
REMARK    7  A    between atoms: _12  and  _15
REMARK    8  A    between atoms: _15  and  _16
REMARK    9  A    between atoms: _21  and  _22
REMARK   10  A    between atoms: _24  and  _26
REMARK   11  A    between atoms: _26  and  _27
REMARK   12  A    between atoms: _26  and  _29
REMARK   13  A    between atoms: _29  and  _30
REMARK   14  A    between atoms: _34  and  _35
REMARK   15  A    between atoms: _40  and  _42
REMARK   16  A    between atoms: _42  and  _43
REMARK   17  A    between atoms: _42  and  _45
REMARK   18  A    between atoms: _45  and  _46
REMARK   19  A    between atoms: _51  and  _52
REMARK   20  A    between atoms: _54  and  _56
REMARK   21  A    between atoms: _56  and  _57
REMARK   22  A    between atoms: _56  and  _59
REMARK   23  A    between atoms: _59  and  _60
REMARK   24  A    between atoms: _66  and  _68
REMARK   25  A    between atoms: _68  and  _69
REMARK   26  A    between atoms: _68  and  _71
REMARK   27  A    between atoms: _71  and  _72
REMARK   28  A    between atoms: _78  and  _80
REMARK   29  A    between atoms: _80  and  _81
REMARK   30  A    between atoms: _80  and  _83
REMARK   31  A    between atoms: _83  and  _84
REMARK   32  A    between atoms: _84  and  _85
REMARK   33  A    between atoms: _85  and  _86
REMARK   34  A    between atoms: _95  and  _97
REMARK   35  A    between atoms: _97  and  _98
REMARK   36  A    between atoms: _97  and  _100
REMARK   37  A    between atoms: _100  and  _101
REMARK   38  A    between atoms: _101  and  _102
REMARK   39  A    between atoms: _104  and  _106
REMARK   40  A    between atoms: _106  and  _107
REMARK   41  A    between atoms: _106  and  _109
REMARK   42  A    between atoms: _109  and  _110
REMARK   43  A    between atoms: _114  and  _115
REMARK   44  A    between atoms: _120  and  _122
REMARK   45  A    between atoms: _122  and  _123
REMARK   46  A    between atoms: _122  and  _125
REMARK   47  A    between atoms: _125  and  _126
REMARK   48  A    between atoms: _131  and  _133
REMARK   49  A    between atoms: _133  and  _134
REMARK   50  A    between atoms: _133  and  _136
REMARK   51  A    between atoms: _136  and  _137
REMARK   52  A    between atoms: _140  and  _142
REMARK   53  A    between atoms: _142  and  _143
REMARK   54  A    between atoms: _146  and  _148
REMARK   55  A    between atoms: _148  and  _149
REMARK   56  A    between atoms: _148  and  _151
REMARK   57  A    between atoms: _151  and  _152
REMARK   58  A    between atoms: _155  and  _157
REMARK   59  A    between atoms: _157  and  _158
REMARK   60  A    between atoms: _157  and  _160
REMARK   61  A    between atoms: _160  and  _161
REMARK   62  A    between atoms: _164  and  _166
REMARK   63  A    between atoms: _166  and  _167
REMARK   64  A    between atoms: _166  and  _169
REMARK   65  A    between atoms: _172  and  _174
REMARK   66  A    between atoms: _174  and  _175
REMARK   67  A    between atoms: _174  and  _177
REMARK   68  A    between atoms: _177  and  _178
REMARK   69  A    between atoms: _180  and  _182
REMARK   70  A    between atoms: _182  and  _183
REMARK   71  A    between atoms: _182  and  _185
REMARK   72  A    between atoms: _185  and  _186
REMARK   73  A    between atoms: _191  and  _192
REMARK   74  A    between atoms: _194  and  _196
REMARK   75  A    between atoms: _196  and  _197
REMARK   76  A    between atoms: _196  and  _199
REMARK   77  A    between atoms: _199  and  _200
REMARK   78  A    between atoms: _202  and  _204
REMARK   79  A    between atoms: _204  and  _205
REMARK   80  A    between atoms: _204  and  _207
REMARK   81  A    between atoms: _207  and  _208
REMARK   82  A    between atoms: _211  and  _213
REMARK   83  A    between atoms: _213  and  _214
REMARK   84  A    between atoms: _213  and  _216
REMARK   85  A    between atoms: _216  and  _217
REMARK   86  A    between atoms: _217  and  _218
REMARK   87  A    between atoms: _218  and  _219
REMARK   88  A    between atoms: _219  and  _220
REMARK   89  A    between atoms: _224  and  _226
REMARK   90  A    between atoms: _226  and  _227
REMARK   91  A    between atoms: _226  and  _229
REMARK   92  A    between atoms: _232  and  _234
REMARK   93  A    between atoms: _234  and  _235
REMARK   94  A    between atoms: _238  and  _240
REMARK   95  A    between atoms: _240  and  _241
REMARK   96  A    between atoms: _240  and  _243
REMARK   97  A    between atoms: _243  and  _244
REMARK   98  A    between atoms: _247  and  _249
REMARK   99  A    between atoms: _249  and  _250
REMARK  100  A    between atoms: _249  and  _252
REMARK  101  A    between atoms: _252  and  _253
REMARK  102  A    between atoms: _253  and  _254
REMARK  103  A    between atoms: _257  and  _259
REMARK  104  A    between atoms: _259  and  _260
REMARK  105  A    between atoms: _259  and  _262
REMARK  106  A    between atoms: _265  and  _267
REMARK  107  A    between atoms: _267  and  _268
REMARK  108  A    between atoms: _267  and  _270
REMARK  109  A    between atoms: _270  and  _271
REMARK  110  A    between atoms: _274  and  _276
REMARK  111  A    between atoms: _276  and  _277
REMARK  112  A    between atoms: _276  and  _279
REMARK  113  A    between atoms: _279  and  _280
REMARK  114  A    between atoms: _280  and  _281
REMARK  115  A    between atoms: _283  and  _285
REMARK  116  A    between atoms: _285  and  _286
REMARK  117  A    between atoms: _285  and  _288
REMARK  118  A    between atoms: _288  and  _289
REMARK  119  A    between atoms: _292  and  _294
REMARK  120  A    between atoms: _294  and  _295
REMARK  121  A    between atoms: _294  and  _297
REMARK  122  A    between atoms: _297  and  _298
REMARK  123  A    between atoms: _298  and  _299
REMARK  124  A    between atoms: _299  and  _300
REMARK  125  A    between atoms: _309  and  _311
REMARK  126  A    between atoms: _311  and  _312
REMARK  127  A    between atoms: _311  and  _314
REMARK  128  A    between atoms: _314  and  _315
REMARK  129  A    between atoms: _317  and  _319
REMARK  130  A    between atoms: _319  and  _320
REMARK  131  A    between atoms: _319  and  _322
REMARK  132  A    between atoms: _322  and  _323
REMARK  133  A    between atoms: _328  and  _330
REMARK  134  A    between atoms: _330  and  _331
REMARK  135  A    between atoms: _330  and  _333
REMARK  136  A    between atoms: _333  and  _334
REMARK  137  A    between atoms: _334  and  _335
REMARK  138  A    between atoms: _340  and  _342
REMARK  139  A    between atoms: _342  and  _343
REMARK  140  A    between atoms: _342  and  _345
REMARK  141  A    between atoms: _345  and  _346
REMARK  142  A    between atoms: _348  and  _350
REMARK  143  A    between atoms: _350  and  _351
REMARK  144  A    between atoms: _350  and  _353
REMARK  145  A    between atoms: _353  and  _354
REMARK  146  A    between atoms: _360  and  _362
REMARK  147  A    between atoms: _362  and  _363
REMARK  148  A    between atoms: _362  and  _365
REMARK  149  A    between atoms: _365  and  _366
REMARK  150  A    between atoms: _368  and  _370
REMARK  151  A    between atoms: _370  and  _371
REMARK  152  A    between atoms: _370  and  _373
REMARK  153  A    between atoms: _373  and  _374
REMARK  154  A    between atoms: _384  and  _386
REMARK  155  A    between atoms: _386  and  _387
REMARK  156  A    between atoms: _386  and  _389
REMARK  157  A    between atoms: _389  and  _390
REMARK  158  A    between atoms: _393  and  _395
REMARK  159  A    between atoms: _395  and  _396
REMARK  160  A    between atoms: _395  and  _398
REMARK  161  A    between atoms: _400  and  _402
REMARK  162  A    between atoms: _402  and  _403
REMARK  163  A    between atoms: _402  and  _405
REMARK  164  A    between atoms: _405  and  _406
REMARK  165  A    between atoms: _411  and  _412
REMARK  166  A    between atoms: _414  and  _416
REMARK  167  A    between atoms: _416  and  _417
REMARK  168  A    between atoms: _416  and  _419
REMARK  169  A    between atoms: _419  and  _420
REMARK  170  A    between atoms: _420  and  _421
REMARK  171  A    between atoms: _421  and  _422
REMARK  172  A    between atoms: _422  and  _423
REMARK  173  A    between atoms: _427  and  _429
REMARK  174  A    between atoms: _429  and  _430
REMARK  175  A    between atoms: _429  and  _432
REMARK  176  A    between atoms: _432  and  _433
REMARK  177  A    between atoms: _438  and  _439
REMARK  178  A    between atoms: _441  and  _443
REMARK  179  A    between atoms: _443  and  _444
REMARK  180  A    between atoms: _443  and  _446
REMARK  181  A    between atoms: _446  and  _447
REMARK  182  A    between atoms: _450  and  _452
REMARK  183  A    between atoms: _452  and  _453
REMARK  184  A    between atoms: _452  and  _455
REMARK  185  A    between atoms: _458  and  _460
REMARK  186  A    between atoms: _460  and  _461
REMARK  187  A    between atoms: _460  and  _463
REMARK  188  A    between atoms: _463  and  _464
REMARK  189  A    between atoms: _467  and  _469
REMARK  190  A    between atoms: _469  and  _470
REMARK  191  A    between atoms: _469  and  _472
REMARK  192  A    between atoms: _475  and  _477
REMARK  193  A    between atoms: _477  and  _478
REMARK  194  A    between atoms: _477  and  _480
REMARK  195  A    between atoms: _480  and  _481
REMARK  196  A    between atoms: _483  and  _485
REMARK  197  A    between atoms: _485  and  _486
REMARK  198  A    between atoms: _485  and  _488
REMARK  199  A    between atoms: _488  and  _489
REMARK  200  A    between atoms: _489  and  _490
REMARK  201  A    between atoms: _490  and  _491
REMARK  202  A    between atoms: _491  and  _492
REMARK  203  A    between atoms: _496  and  _498
REMARK  204  A    between atoms: _498  and  _499
REMARK  205  A    between atoms: _502  and  _504
REMARK  206  A    between atoms: _504  and  _505
REMARK  207  A    between atoms: _507  and  _509
REMARK  208  A    between atoms: _509  and  _510
REMARK  209  A    between atoms: _509  and  _512
REMARK  210  A    between atoms: _512  and  _513
REMARK  211  A    between atoms: _518  and  _520
REMARK  212  A    between atoms: _520  and  _521
REMARK  213  A    between atoms: _520  and  _523
REMARK  214  A    between atoms: _523  and  _524
REMARK  215  A    between atoms: _527  and  _529
REMARK  216  A    between atoms: _529  and  _530
REMARK  217  A    between atoms: _529  and  _532
REMARK  218  A    between atoms: _532  and  _533
REMARK  219  A    between atoms: _536  and  _538
REMARK  220  A    between atoms: _538  and  _539
REMARK  221  A    between atoms: _538  and  _541
REMARK  222  A    between atoms: _541  and  _542
REMARK  223  A    between atoms: _545  and  _547
REMARK  224  A    between atoms: _547  and  _548
REMARK  225  A    between atoms: _547  and  _550
REMARK  226  A    between atoms: _550  and  _551
REMARK  227  A    between atoms: _554  and  _556
REMARK  228  A    between atoms: _556  and  _557
REMARK  229  A    between atoms: _556  and  _559
REMARK  230  A    between atoms: _559  and  _560
REMARK  231  A    between atoms: _560  and  _561
REMARK  232  A    between atoms: _566  and  _568
REMARK  233  A    between atoms: _568  and  _569
REMARK  234  A    between atoms: _568  and  _571
REMARK  235  A    between atoms: _571  and  _572
REMARK  236  A    between atoms: _577  and  _579
REMARK  237  A    between atoms: _579  and  _580
REMARK  238  A    between atoms: _579  and  _582
REMARK  239  A    between atoms: _582  and  _583
REMARK  240  A    between atoms: _585  and  _587
REMARK  241  A    between atoms: _587  and  _588
REMARK  242  A    between atoms: _587  and  _590
REMARK  243  A    between atoms: _590  and  _591
REMARK  244  A    between atoms: _591  and  _592
REMARK  245  A    between atoms: _597  and  _599
REMARK  246  A    between atoms: _599  and  _600
REMARK  247  A    between atoms: _599  and  _602
REMARK  248  A    between atoms: _602  and  _603
REMARK  249  A    between atoms: _608  and  _609
REMARK  250  A    between atoms: _611  and  _613
REMARK  251  A    between atoms: _613  and  _614
REMARK  252  A    between atoms: _613  and  _616
REMARK  253  A    between atoms: _616  and  _617
REMARK  254  A    between atoms: _617  and  _618
REMARK  255  A    between atoms: _618  and  _619
REMARK  256  A    between atoms: _628  and  _630
REMARK  257  A    between atoms: _630  and  _631
REMARK  258  A    between atoms: _630  and  _633
REMARK  259  A    between atoms: _633  and  _634
REMARK  260  A    between atoms: _637  and  _639
REMARK  261  A    between atoms: _639  and  _640
REMARK  262  A    between atoms: _639  and  _642
REMARK  263  A    between atoms: _642  and  _643
REMARK  264  A    between atoms: _645  and  _647
REMARK  265  A    between atoms: _647  and  _648
REMARK  266  A    between atoms: _647  and  _650
REMARK  267  A    between atoms: _650  and  _651
REMARK  268  A    between atoms: _656  and  _658
REMARK  269  A    between atoms: _658  and  _659
REMARK  270  A    between atoms: _658  and  _661
REMARK  271  A    between atoms: _661  and  _662
REMARK  272  A    between atoms: _662  and  _663
REMARK  273  A    between atoms: _663  and  _664
REMARK  274  A    between atoms: _664  and  _665
REMARK  275  A    between atoms: _669  and  _671
REMARK  276  A    between atoms: _671  and  _672
REMARK  277  A    between atoms: _671  and  _674
REMARK  278  A    between atoms: _674  and  _675
REMARK  279  A    between atoms: _678  and  _680
REMARK  280  A    between atoms: _680  and  _681
REMARK  281  A    between atoms: _680  and  _683
REMARK  282  A    between atoms: _683  and  _684
REMARK  283  A    between atoms: _687  and  _689
REMARK  284  A    between atoms: _689  and  _690
REMARK  285  A    between atoms: _689  and  _692
REMARK  286  A    between atoms: _695  and  _697
REMARK  287  A    between atoms: _697  and  _698
REMARK  288  A    between atoms: _697  and  _700
REMARK  289  A    between atoms: _700  and  _701
REMARK  290  A    between atoms: _704  and  _706
REMARK  291  A    between atoms: _706  and  _707
REMARK  292  A    between atoms: _706  and  _709
REMARK  293  A    between atoms: _709  and  _710
REMARK                            x       y       z     vdW  Elec       q    Type
REMARK                         _______ _______ _______ _____ _____    ______ ____
ROOT
ATOM      1  CA  ARG A   8      55.083   3.894   2.694  0.00  0.00    +0.149 C 
ENDROOT
BRANCH   1   2
ATOM      2  C   ARG A   8      55.505   5.107   1.879  0.00  0.00    +0.241 C 
ATOM      3  O   ARG A   8      55.408   6.235   2.354  0.00  0.00    -0.273 OA
ATOM      4  N   SER A   9      55.950   4.873   0.642  0.00  0.00    -0.295 N 
ATOM      5  H   SER A   9      55.986   3.895   0.289  0.00  0.00    +0.150 HD
BRANCH   4   6
ATOM      6  CA  SER A   9      56.386   5.961  -0.222  0.00  0.00    +0.178 C 
BRANCH   6   7
ATOM      7  C   SER A   9      55.218   6.833  -0.679  0.00  0.00    +0.243 C 
ATOM      8  N   ASN A  10      53.987   6.349  -0.527  0.00  0.00    -0.297 N 
ATOM      9  H   ASN A  10      53.855   5.383  -0.165  0.00  0.00    +0.150 HD
ATOM     10  O   SER A   9      55.430   7.968  -1.138  0.00  0.00    -0.273 OA
BRANCH   8  11
ATOM     11  CA  ASN A  10      52.817   7.164  -0.864  0.00  0.00    +0.158 C 
BRANCH  11  12
ATOM     12  C   ASN A  10      52.786   8.498  -0.085  0.00  0.00    +0.241 C 
ATOM     13  N   GLN A  11      53.320   8.499   1.139  0.00  0.00    -0.297 N 
ATOM     14  H   GLN A  11      53.696   7.605   1.515  0.00  0.00    +0.150 HD
ATOM     15  O   ASN A  10      52.306   9.500  -0.590  0.00  0.00    -0.273 OA
BRANCH  13  16
ATOM     16  CA  GLN A  11      53.401   9.680   1.966  0.00  0.00    +0.149 C 
BRANCH  16  17
ATOM     17  C   GLN A  11      54.201  10.829   1.341  0.00  0.00    +0.241 C 
ATOM     18  O   GLN A  11      53.891  11.994   1.572  0.00  0.00    -0.273 OA
ATOM     19  N   SER A  12      55.231  10.519   0.566  0.00  0.00    -0.295 N 
ATOM     20  H   SER A  12      55.499   9.523   0.432  0.00  0.00    +0.150 HD
BRANCH  19  21
ATOM     21  CA  SER A  12      55.986  11.570  -0.096  0.00  0.00    +0.178 C 
BRANCH  21  22
ATOM     22  C   SER A  12      55.509  11.788  -1.536  0.00  0.00    +0.243 C 
ATOM     23  N   PHE A  13      54.745  10.846  -2.073  0.00  0.00    -0.298 N 
ATOM     24  H   PHE A  13      54.454  10.030  -1.497  0.00  0.00    +0.150 HD
ATOM     25  O   SER A  12      55.863  12.780  -2.154  0.00  0.00    -0.273 OA
BRANCH  23  26
ATOM     26  CA  PHE A  13      54.308  10.941  -3.460  0.00  0.00    +0.141 C 
BRANCH  26  27
ATOM     27  C   PHE A  13      53.358  12.121  -3.638  0.00  0.00    +0.227 C 
ATOM     28  O   PHE A  13      52.544  12.380  -2.774  0.00  0.00    -0.286 OA
ENDBRANCH  26  27
BRANCH  26  29
ATOM     29  CB  PHE A  13      53.634   9.643  -3.936  0.00  0.00    +0.054 C 
BRANCH  29  30
ATOM     30  CG  PHE A  13      53.205   9.677  -5.386  0.00  0.00    -0.020 A 
ATOM     31  CD2 PHE A  13      51.858   9.895  -5.737  0.00  0.00    -0.004 A 
ATOM     32  CE2 PHE A  13      51.463   9.922  -7.084  0.00  0.00    -0.000 A 
ATOM     33  CZ  PHE A  13      52.406   9.759  -8.094  0.00  0.00    -0.000 A 
ATOM     34  CE1 PHE A  13      53.744   9.554  -7.776  0.00  0.00    -0.000 A 
ATOM     35  CD1 PHE A  13      54.140   9.504  -6.411  0.00  0.00    -0.004 A 
ENDBRANCH  29  30
ENDBRANCH  26  29
ENDBRANCH  23  26
ENDBRANCH  21  22
BRANCH  21  36
ATOM     36  CB  SER A  12      57.486  11.252  -0.091  0.00  0.00    +0.166 C 
BRANCH  36  37
ATOM     37  OG  SER A  12      57.751  10.090  -0.843  0.00  0.00    -0.380 OA
ATOM     38  H   SER A  12      57.260   9.325  -0.451  0.00  0.00    +0.211 HD
ENDBRANCH  36  37
ENDBRANCH  21  36
ENDBRANCH  19  21
ENDBRANCH  16  17
BRANCH  16  39
ATOM     39  CB  GLN A  11      53.979   9.303   3.338  0.00  0.00    +0.039 C 
BRANCH  39  40
ATOM     40  CG  GLN A  11      54.037  10.497   4.328  0.00  0.00    +0.087 C 
BRANCH  40  41
ATOM     41  CD  GLN A  11      54.022  10.090   5.793  0.00  0.00    +0.219 C 
ATOM     42  OE1 GLN A  11      54.113  10.962   6.694  0.00  0.00    -0.275 OA
ATOM     43  NE2 GLN A  11      53.868   8.781   6.059  0.00  0.00    -0.329 N 
ATOM     44 HE21 GLN A  11      53.820   8.453   7.045  0.00  0.00    +0.145 HD
ATOM     45 HE22 GLN A  11      53.797   8.097   5.279  0.00  0.00    +0.145 HD
ENDBRANCH  40  41
ENDBRANCH  39  40
ENDBRANCH  16  39
ENDBRANCH  13  16
ENDBRANCH  11  12
BRANCH  11  46
ATOM     46  CB  ASN A  10      51.510   6.381  -0.681  0.00  0.00    +0.114 C 
BRANCH  46  47
ATOM     47  CG  ASN A  10      50.304   7.052  -1.374  0.00  0.00    +0.222 C 
ATOM     48  OD1 ASN A  10      49.350   7.456  -0.704  0.00  0.00    -0.275 OA
ATOM     49  ND2 ASN A  10      50.338   7.145  -2.721  0.00  0.00    -0.329 N 
ATOM     50 HD21 ASN A  10      49.539   7.570  -3.233  0.00  0.00    +0.145 HD
ATOM     51 HD22 ASN A  10      51.163   6.791  -3.246  0.00  0.00    +0.145 HD
ENDBRANCH  46  47
ENDBRANCH  11  46
ENDBRANCH   8  11
ENDBRANCH   6   7
BRANCH   6  52
ATOM     52  CB  SER A   9      57.189   5.448  -1.428  0.00  0.00    +0.166 C 
BRANCH  52  53
ATOM     53  OG  SER A   9      56.289   4.927  -2.409  0.00  0.00    -0.380 OA
ATOM     54  H   SER A   9      55.769   4.182  -2.016  0.00  0.00    +0.211 HD
ENDBRANCH  52  53
ENDBRANCH   6  52
ENDBRANCH   4   6
ENDBRANCH   1   2
BRANCH   1  56
ATOM     55  C   LEU A   7      53.600   2.926   1.034  0.00  0.00    +0.241 C 
ATOM     56  N   ARG A   8      54.693   2.795   1.802  0.00  0.00    -0.297 N 
ATOM     57  H   ARG A   8      55.258   1.923   1.766  0.00  0.00    +0.150 HD
ATOM     58  O   LEU A   7      52.969   4.006   0.941  0.00  0.00    -0.273 OA
BRANCH  55  59
ATOM     59  CA  LEU A   7      53.159   1.698   0.253  0.00  0.00    +0.149 C 
BRANCH  59  61
ATOM     60  C   MET A   6      54.839   1.864  -1.546  0.00  0.00    +0.241 C 
ATOM     61  N   LEU A   7      54.270   1.142  -0.566  0.00  0.00    -0.297 N 
ATOM     62  H   LEU A   7      54.612   0.178  -0.377  0.00  0.00    +0.150 HD
ATOM     63  O   MET A   6      54.489   3.024  -1.821  0.00  0.00    -0.273 OA
BRANCH  60  64
ATOM     64  CA  MET A   6      56.024   1.231  -2.279  0.00  0.00    +0.149 C 
BRANCH  64  67
ATOM     65  C   ILE A   5      57.505   1.247  -0.353  0.00  0.00    +0.241 C 
ATOM     66  O   ILE A   5      57.377   2.463  -0.273  0.00  0.00    -0.273 OA
ATOM     67  N   MET A   6      56.887   0.534  -1.291  0.00  0.00    -0.297 N 
ATOM     68  H   MET A   6      57.007  -0.498  -1.332  0.00  0.00    +0.150 HD
BRANCH  65  69
ATOM     69  CA  ILE A   5      58.382   0.487   0.652  0.00  0.00    +0.149 C 
BRANCH  69  72
ATOM     70  C   VAL A   4      56.528  -0.596   1.742  0.00  0.00    +0.241 C 
ATOM     71  O   VAL A   4      56.106   0.494   2.094  0.00  0.00    -0.273 OA
ATOM     72  N   ILE A   5      57.680  -0.715   1.083  0.00  0.00    -0.297 N 
ATOM     73  H   ILE A   5      58.074  -1.656   0.878  0.00  0.00    +0.150 HD
BRANCH  70  74
ATOM     74  CA  VAL A   4      55.751  -1.867   2.101  0.00  0.00    +0.149 C 
BRANCH  74  76
ATOM     75  C   GLU A   3      55.360  -2.668  -0.171  0.00  0.00    +0.241 C 
ATOM     76  N   VAL A   4      55.845  -2.924   1.048  0.00  0.00    -0.297 N 
ATOM     77  H   VAL A   4      56.281  -3.844   1.261  0.00  0.00    +0.150 HD
ATOM     78  O   GLU A   3      54.777  -1.620  -0.451  0.00  0.00    -0.273 OA
BRANCH  75  79
ATOM     79  CA  GLU A   3      55.562  -3.714  -1.240  0.00  0.00    +0.149 C 
BRANCH  79  81
ATOM     80  C   ILE A   2      57.945  -3.307  -1.657  0.00  0.00    +0.241 C 
ATOM     81  N   GLU A   3      56.966  -4.128  -1.306  0.00  0.00    -0.297 N 
ATOM     82  H   GLU A   3      57.205  -5.111  -1.066  0.00  0.00    +0.150 HD
ATOM     83  O   ILE A   2      57.747  -2.123  -2.017  0.00  0.00    -0.273 OA
BRANCH  80  84
ATOM     84  CA  ILE A   2      59.373  -3.919  -1.599  0.00  0.00    +0.148 C 
BRANCH  84  87
ATOM     85  C   ALA A   1      59.450  -4.420   0.783  0.00  0.00    +0.238 C 
ATOM     86  O   ALA A   1      59.162  -3.251   1.061  0.00  0.00    -0.274 OA
ATOM     87  N   ILE A   2      59.563  -4.859  -0.486  0.00  0.00    -0.297 N 
ATOM     88  H   ILE A   2      59.783  -5.857  -0.676  0.00  0.00    +0.150 HD
BRANCH  85  89
ATOM     89  CA  ALA A   1      59.745  -5.419   1.905  0.00  0.00    +0.145 C 
ATOM     90  CB  ALA A   1      61.239  -5.723   1.952  0.00  0.00    +0.028 C 
BRANCH  89  91
ATOM     91  N   ALA A   1      58.940  -6.660   1.771  0.00  0.00    -0.238 NA
ATOM     92  H   ALA A   1      59.409  -7.587   1.823  0.00  0.00    +0.142 HD
ENDBRANCH  89  91
ENDBRANCH  85  89
ENDBRANCH  84  87
BRANCH  84  93
ATOM     93  CB  ILE A   2      59.753  -4.555  -2.980  0.00  0.00    +0.027 C 
ATOM     94  CG2 ILE A   2      58.725  -5.606  -3.413  0.00  0.00    +0.002 C 
BRANCH  93  95
ATOM     95  CG1 ILE A   2      59.949  -3.474  -4.047  0.00  0.00    +0.002 C 
ATOM     96  CD1 ILE A   2      61.141  -2.582  -3.784  0.00  0.00    +0.000 C 
ENDBRANCH  93  95
ENDBRANCH  84  93
ENDBRANCH  80  84
ENDBRANCH  79  81
BRANCH  79  97
ATOM     97  CB  GLU A   3      54.675  -4.928  -0.943  0.00  0.00    +0.041 C 
BRANCH  97  98
ATOM     98  CG  GLU A   3      54.634  -5.955  -2.085  0.00  0.00    +0.116 C 
BRANCH  98  99
ATOM     99  CD  GLU A   3      53.703  -7.090  -1.754  0.00  0.00    +0.365 C 
ATOM    100  OE2 GLU A   3      52.758  -6.874  -0.960  0.00  0.00    -0.246 OA
ATOM    101  OE1 GLU A   3      53.939  -8.199  -2.250  0.00  0.00    -0.246 OA
ENDBRANCH  98  99
ENDBRANCH  97  98
ENDBRANCH  79  97
ENDBRANCH  75  79
ENDBRANCH  74  76
BRANCH  74 102
ATOM    102  CB  VAL A   4      56.195  -2.391   3.485  0.00  0.00    +0.027 C 
ATOM    103  CG2 VAL A   4      55.825  -1.409   4.596  0.00  0.00    +0.002 C 
ATOM    104  CG1 VAL A   4      55.550  -3.767   3.765  0.00  0.00    +0.002 C 
ENDBRANCH  74 102
ENDBRANCH  70  74
ENDBRANCH  69  72
BRANCH  69 105
ATOM    105  CB  ILE A   5      59.802   0.148   0.075  0.00  0.00    +0.027 C 
ATOM    106  CG2 ILE A   5      60.464   1.420  -0.514  0.00  0.00    +0.002 C 
BRANCH 105 107
ATOM    107  CG1 ILE A   5      60.672  -0.444   1.205  0.00  0.00    +0.002 C 
ATOM    108  CD1 ILE A   5      62.018  -1.066   0.770  0.00  0.00    +0.000 C 
ENDBRANCH 105 107
ENDBRANCH  69 105
ENDBRANCH  65  69
ENDBRANCH  64  67
BRANCH  64 109
ATOM    109  CB  MET A   6      55.553   0.287  -3.382  0.00  0.00    +0.041 C 
BRANCH 109 110
ATOM    110  CG  MET A   6      56.616  -0.052  -4.421  0.00  0.00    +0.060 C 
BRANCH 110 111
ATOM    111  SD  MET A   6      56.105  -1.523  -5.374  0.00  0.00    -0.139 S 
ATOM    112  CE  MET A   6      57.547  -1.683  -6.457  0.00  0.00    +0.069 C 
ENDBRANCH 110 111
ENDBRANCH 109 110
ENDBRANCH  64 109
ENDBRANCH  60  64
ENDBRANCH  59  61
BRANCH  59 113
ATOM    113  CB  LEU A   7      52.547   0.648   1.234  0.00  0.00    +0.029 C 
BRANCH 113 114
ATOM    114  CG  LEU A   7      51.496  -0.365   0.805  0.00  0.00    +0.002 C 
ATOM    115  CD2 LEU A   7      51.225  -1.449   1.870  0.00  0.00    +0.000 C 
ATOM    116  CD1 LEU A   7      50.191   0.335   0.404  0.00  0.00    +0.000 C 
ENDBRANCH 113 114
ENDBRANCH  59 113
ENDBRANCH  55  59
ENDBRANCH   1  56
BRANCH   1 117
ATOM    117  CB  ARG A   8      56.201   3.461   3.681  0.00  0.00    +0.033 C 
BRANCH 117 118
ATOM    118  CG  ARG A   8      57.586   3.345   3.082  0.00  0.00    +0.045 C 
BRANCH 118 119
ATOM    119  CD  ARG A   8      58.485   2.349   3.903  0.00  0.00    +0.174 C 
BRANCH 119 120
ATOM    120  NE  ARG A   8      58.506   2.662   5.347  0.00  0.00    -0.265 N 
ATOM    121  HE  ARG A   8      57.834   2.155   5.957  0.00  0.00    +0.259 HD
ATOM    122  CZ  ARG A   8      59.321   3.546   5.930  0.00  0.00    +0.342 C 
ATOM    123  NH2 ARG A   8      59.206   3.756   7.242  0.00  0.00    -0.292 N 
ATOM    124 HH21 ARG A   8      58.492   3.236   7.791  0.00  0.00    +0.255 HD
ATOM    125 HH22 ARG A   8      59.830   4.440   7.716  0.00  0.00    +0.255 HD
ATOM    126  NH1 ARG A   8      60.219   4.257   5.216  0.00  0.00    -0.292 N 
ATOM    127 HH11 ARG A   8      60.842   4.939   5.695  0.00  0.00    +0.255 HD
ATOM    128 HH12 ARG A   8      60.288   4.123   4.187  0.00  0.00    +0.255 HD
ENDBRANCH 119 120
ENDBRANCH 118 119
ENDBRANCH 117 118
ENDBRANCH   1 117
TORSDOF 54
REMARK  Name = ../refined-set-2016/2o4r/2o4r_pocket.pdb
REMARK  293 active torsions:
REMARK  status: ('A' for Active; 'I' for Inactive)
REMARK    1  A    between atoms: _1  and  _3
REMARK    2  A    between atoms: _3  and  _4
REMARK    3  A    between atoms: _3  and  _6
REMARK    4  A    between atoms: _6  and  _7
REMARK    5  A    between atoms: _10  and  _12
REMARK    6  A    between atoms: _12  and  _13
REMARK    7  A    between atoms: _12  and  _15
REMARK    8  A    between atoms: _15  and  _16
REMARK    9  A    between atoms: _21  and  _22
REMARK   10  A    between atoms: _24  and  _26
REMARK   11  A    between atoms: _26  and  _27
REMARK   12  A    between atoms: _26  and  _29
REMARK   13  A    between atoms: _29  and  _30
REMARK   14  A    between atoms: _34  and  _35
REMARK   15  A    between atoms: _40  and  _42
REMARK   16  A    between atoms: _42  and  _43
REMARK   17  A    between atoms: _42  and  _45
REMARK   18  A    between atoms: _45  and  _46
REMARK   19  A    between atoms: _51  and  _52
REMARK   20  A    between atoms: _54  and  _56
REMARK   21  A    between atoms: _56  and  _57
REMARK   22  A    between atoms: _56  and  _59
REMARK   23  A    between atoms: _59  and  _60
REMARK   24  A    between atoms: _66  and  _68
REMARK   25  A    between atoms: _68  and  _69
REMARK   26  A    between atoms: _68  and  _71
REMARK   27  A    between atoms: _71  and  _72
REMARK   28  A    between atoms: _78  and  _80
REMARK   29  A    between atoms: _80  and  _81
REMARK   30  A    between atoms: _80  and  _83
REMARK   31  A    between atoms: _83  and  _84
REMARK   32  A    between atoms: _84  and  _85
REMARK   33  A    between atoms: _85  and  _86
REMARK   34  A    between atoms: _95  and  _97
REMARK   35  A    between atoms: _97  and  _98
REMARK   36  A    between atoms: _97  and  _100
REMARK   37  A    between atoms: _100  and  _101
REMARK   38  A    between atoms: _101  and  _102
REMARK   39  A    between atoms: _104  and  _106
REMARK   40  A    between atoms: _106  and  _107
REMARK   41  A    between atoms: _106  and  _109
REMARK   42  A    between atoms: _109  and  _110
REMARK   43  A    between atoms: _114  and  _115
REMARK   44  A    between atoms: _120  and  _122
REMARK   45  A    between atoms: _122  and  _123
REMARK   46  A    between atoms: _122  and  _125
REMARK   47  A    between atoms: _125  and  _126
REMARK   48  A    between atoms: _131  and  _133
REMARK   49  A    between atoms: _133  and  _134
REMARK   50  A    between atoms: _133  and  _136
REMARK   51  A    between atoms: _136  and  _137
REMARK   52  A    between atoms: _140  and  _142
REMARK   53  A    between atoms: _142  and  _143
REMARK   54  A    between atoms: _146  and  _148
REMARK   55  A    between atoms: _148  and  _149
REMARK   56  A    between atoms: _148  and  _151
REMARK   57  A    between atoms: _151  and  _152
REMARK   58  A    between atoms: _155  and  _157
REMARK   59  A    between atoms: _157  and  _158
REMARK   60  A    between atoms: _157  and  _160
REMARK   61  A    between atoms: _160  and  _161
REMARK   62  A    between atoms: _164  and  _166
REMARK   63  A    between atoms: _166  and  _167
REMARK   64  A    between atoms: _166  and  _169
REMARK   65  A    between atoms: _172  and  _174
REMARK   66  A    between atoms: _174  and  _175
REMARK   67  A    between atoms: _174  and  _177
REMARK   68  A    between atoms: _177  and  _178
REMARK   69  A    between atoms: _180  and  _182
REMARK   70  A    between atoms: _182  and  _183
REMARK   71  A    between atoms: _182  and  _185
REMARK   72  A    between atoms: _185  and  _186
REMARK   73  A    between atoms: _191  and  _192
REMARK   74  A    between atoms: _194  and  _196
REMARK   75  A    between atoms: _196  and  _197
REMARK   76  A    between atoms: _196  and  _199
REMARK   77  A    between atoms: _199  and  _200
REMARK   78  A    between atoms: _202  and  _204
REMARK   79  A    between atoms: _204  and  _205
REMARK   80  A    between atoms: _204  and  _207
REMARK   81  A    between atoms: _207  and  _208
REMARK   82  A    between atoms: _211  and  _213
REMARK   83  A    between atoms: _213  and  _214
REMARK   84  A    between atoms: _213  and  _216
REMARK   85  A    between atoms: _216  and  _217
REMARK   86  A    between atoms: _217  and  _218
REMARK   87  A    between atoms: _218  and  _219
REMARK   88  A    between atoms: _219  and  _220
REMARK   89  A    between atoms: _224  and  _226
REMARK   90  A    between atoms: _226  and  _227
REMARK   91  A    between atoms: _226  and  _229
REMARK   92  A    between atoms: _232  and  _234
REMARK   93  A    between atoms: _234  and  _235
REMARK   94  A    between atoms: _238  and  _240
REMARK   95  A    between atoms: _240  and  _241
REMARK   96  A    between atoms: _240  and  _243
REMARK   97  A    between atoms: _243  and  _244
REMARK   98  A    between atoms: _247  and  _249
REMARK   99  A    between atoms: _249  and  _250
REMARK  100  A    between atoms: _249  and  _252
REMARK  101  A    between atoms: _252  and  _253
REMARK  102  A    between atoms: _253  and  _254
REMARK  103  A    between atoms: _257  and  _259
REMARK  104  A    between atoms: _259  and  _260
REMARK  105  A    between atoms: _259  and  _262
REMARK  106  A    between atoms: _265  and  _267
REMARK  107  A    between atoms: _267  and  _268
REMARK  108  A    between atoms: _267  and  _270
REMARK  109  A    between atoms: _270  and  _271
REMARK  110  A    between atoms: _274  and  _276
REMARK  111  A    between atoms: _276  and  _277
REMARK  112  A    between atoms: _276  and  _279
REMARK  113  A    between atoms: _279  and  _280
REMARK  114  A    between atoms: _280  and  _281
REMARK  115  A    between atoms: _283  and  _285
REMARK  116  A    between atoms: _285  and  _286
REMARK  117  A    between atoms: _285  and  _288
REMARK  118  A    between atoms: _288  and  _289
REMARK  119  A    between atoms: _292  and  _294
REMARK  120  A    between atoms: _294  and  _295
REMARK  121  A    between atoms: _294  and  _297
REMARK  122  A    between atoms: _297  and  _298
REMARK  123  A    between atoms: _298  and  _299
REMARK  124  A    between atoms: _299  and  _300
REMARK  125  A    between atoms: _309  and  _311
REMARK  126  A    between atoms: _311  and  _312
REMARK  127  A    between atoms: _311  and  _314
REMARK  128  A    between atoms: _314  and  _315
REMARK  129  A    between atoms: _317  and  _319
REMARK  130  A    between atoms: _319  and  _320
REMARK  131  A    between atoms: _319  and  _322
REMARK  132  A    between atoms: _322  and  _323
REMARK  133  A    between atoms: _328  and  _330
REMARK  134  A    between atoms: _330  and  _331
REMARK  135  A    between atoms: _330  and  _333
REMARK  136  A    between atoms: _333  and  _334
REMARK  137  A    between atoms: _334  and  _335
REMARK  138  A    between atoms: _340  and  _342
REMARK  139  A    between atoms: _342  and  _343
REMARK  140  A    between atoms: _342  and  _345
REMARK  141  A    between atoms: _345  and  _346
REMARK  142  A    between atoms: _348  and  _350
REMARK  143  A    between atoms: _350  and  _351
REMARK  144  A    between atoms: _350  and  _353
REMARK  145  A    between atoms: _353  and  _354
REMARK  146  A    between atoms: _360  and  _362
REMARK  147  A    between atoms: _362  and  _363
REMARK  148  A    between atoms: _362  and  _365
REMARK  149  A    between atoms: _365  and  _366
REMARK  150  A    between atoms: _368  and  _370
REMARK  151  A    between atoms: _370  and  _371
REMARK  152  A    between atoms: _370  and  _373
REMARK  153  A    between atoms: _373  and  _374
REMARK  154  A    between atoms: _384  and  _386
REMARK  155  A    between atoms: _386  and  _387
REMARK  156  A    between atoms: _386  and  _389
REMARK  157  A    between atoms: _389  and  _390
REMARK  158  A    between atoms: _393  and  _395
REMARK  159  A    between atoms: _395  and  _396
REMARK  160  A    between atoms: _395  and  _398
REMARK  161  A    between atoms: _400  and  _402
REMARK  162  A    between atoms: _402  and  _403
REMARK  163  A    between atoms: _402  and  _405
REMARK  164  A    between atoms: _405  and  _406
REMARK  165  A    between atoms: _411  and  _412
REMARK  166  A    between atoms: _414  and  _416
REMARK  167  A    between atoms: _416  and  _417
REMARK  168  A    between atoms: _416  and  _419
REMARK  169  A    between atoms: _419  and  _420
REMARK  170  A    between atoms: _420  and  _421
REMARK  171  A    between atoms: _421  and  _422
REMARK  172  A    between atoms: _422  and  _423
REMARK  173  A    between atoms: _427  and  _429
REMARK  174  A    between atoms: _429  and  _430
REMARK  175  A    between atoms: _429  and  _432
REMARK  176  A    between atoms: _432  and  _433
REMARK  177  A    between atoms: _438  and  _439
REMARK  178  A    between atoms: _441  and  _443
REMARK  179  A    between atoms: _443  and  _444
REMARK  180  A    between atoms: _443  and  _446
REMARK  181  A    between atoms: _446  and  _447
REMARK  182  A    between atoms: _450  and  _452
REMARK  183  A    between atoms: _452  and  _453
REMARK  184  A    between atoms: _452  and  _455
REMARK  185  A    between atoms: _458  and  _460
REMARK  186  A    between atoms: _460  and  _461
REMARK  187  A    between atoms: _460  and  _463
REMARK  188  A    between atoms: _463  and  _464
REMARK  189  A    between atoms: _467  and  _469
REMARK  190  A    between atoms: _469  and  _470
REMARK  191  A    between atoms: _469  and  _472
REMARK  192  A    between atoms: _475  and  _477
REMARK  193  A    between atoms: _477  and  _478
REMARK  194  A    between atoms: _477  and  _480
REMARK  195  A    between atoms: _480  and  _481
REMARK  196  A    between atoms: _483  and  _485
REMARK  197  A    between atoms: _485  and  _486
REMARK  198  A    between atoms: _485  and  _488
REMARK  199  A    between atoms: _488  and  _489
REMARK  200  A    between atoms: _489  and  _490
REMARK  201  A    between atoms: _490  and  _491
REMARK  202  A    between atoms: _491  and  _492
REMARK  203  A    between atoms: _496  and  _498
REMARK  204  A    between atoms: _498  and  _499
REMARK  205  A    between atoms: _502  and  _504
REMARK  206  A    between atoms: _504  and  _505
REMARK  207  A    between atoms: _507  and  _509
REMARK  208  A    between atoms: _509  and  _510
REMARK  209  A    between atoms: _509  and  _512
REMARK  210  A    between atoms: _512  and  _513
REMARK  211  A    between atoms: _518  and  _520
REMARK  212  A    between atoms: _520  and  _521
REMARK  213  A    between atoms: _520  and  _523
REMARK  214  A    between atoms: _523  and  _524
REMARK  215  A    between atoms: _527  and  _529
REMARK  216  A    between atoms: _529  and  _530
REMARK  217  A    between atoms: _529  and  _532
REMARK  218  A    between atoms: _532  and  _533
REMARK  219  A    between atoms: _536  and  _538
REMARK  220  A    between atoms: _538  and  _539
REMARK  221  A    between atoms: _538  and  _541
REMARK  222  A    between atoms: _541  and  _542
REMARK  223  A    between atoms: _545  and  _547
REMARK  224  A    between atoms: _547  and  _548
REMARK  225  A    between atoms: _547  and  _550
REMARK  226  A    between atoms: _550  and  _551
REMARK  227  A    between atoms: _554  and  _556
REMARK  228  A    between atoms: _556  and  _557
REMARK  229  A    between atoms: _556  and  _559
REMARK  230  A    between atoms: _559  and  _560
REMARK  231  A    between atoms: _560  and  _561
REMARK  232  A    between atoms: _566  and  _568
REMARK  233  A    between atoms: _568  and  _569
REMARK  234  A    between atoms: _568  and  _571
REMARK  235  A    between atoms: _571  and  _572
REMARK  236  A    between atoms: _577  and  _579
REMARK  237  A    between atoms: _579  and  _580
REMARK  238  A    between atoms: _579  and  _582
REMARK  239  A    between atoms: _582  and  _583
REMARK  240  A    between atoms: _585  and  _587
REMARK  241  A    between atoms: _587  and  _588
REMARK  242  A    between atoms: _587  and  _590
REMARK  243  A    between atoms: _590  and  _591
REMARK  244  A    between atoms: _591  and  _592
REMARK  245  A    between atoms: _597  and  _599
REMARK  246  A    between atoms: _599  and  _600
REMARK  247  A    between atoms: _599  and  _602
REMARK  248  A    between atoms: _602  and  _603
REMARK  249  A    between atoms: _608  and  _609
REMARK  250  A    between atoms: _611  and  _613
REMARK  251  A    between atoms: _613  and  _614
REMARK  252  A    between atoms: _613  and  _616
REMARK  253  A    between atoms: _616  and  _617
REMARK  254  A    between atoms: _617  and  _618
REMARK  255  A    between atoms: _618  and  _619
REMARK  256  A    between atoms: _628  and  _630
REMARK  257  A    between atoms: _630  and  _631
REMARK  258  A    between atoms: _630  and  _633
REMARK  259  A    between atoms: _633  and  _634
REMARK  260  A    between atoms: _637  and  _639
REMARK  261  A    between atoms: _639  and  _640
REMARK  262  A    between atoms: _639  and  _642
REMARK  263  A    between atoms: _642  and  _643
REMARK  264  A    between atoms: _645  and  _647
REMARK  265  A    between atoms: _647  and  _648
REMARK  266  A    between atoms: _647  and  _650
REMARK  267  A    between atoms: _650  and  _651
REMARK  268  A    between atoms: _656  and  _658
REMARK  269  A    between atoms: _658  and  _659
REMARK  270  A    between atoms: _658  and  _661
REMARK  271  A    between atoms: _661  and  _662
REMARK  272  A    between atoms: _662  and  _663
REMARK  273  A    between atoms: _663  and  _664
REMARK  274  A    between atoms: _664  and  _665
REMARK  275  A    between atoms: _669  and  _671
REMARK  276  A    between atoms: _671  and  _672
REMARK  277  A    between atoms: _671  and  _674
REMARK  278  A    between atoms: _674  and  _675
REMARK  279  A    between atoms: _678  and  _680
REMARK  280  A    between atoms: _680  and  _681
REMARK  281  A    between atoms: _680  and  _683
REMARK  282  A    between atoms: _683  and  _684
REMARK  283  A    between atoms: _687  and  _689
REMARK  284  A    between atoms: _689  and  _690
REMARK  285  A    between atoms: _689  and  _692
REMARK  286  A    between atoms: _695  and  _697
REMARK  287  A    between atoms: _697  and  _698
REMARK  288  A    between atoms: _697  and  _700
REMARK  289  A    between atoms: _700  and  _701
REMARK  290  A    between atoms: _704  and  _706
REMARK  291  A    between atoms: _706  and  _707
REMARK  292  A    between atoms: _706  and  _709
REMARK  293  A    between atoms: _709  and  _710
REMARK                            x       y       z     vdW  Elec       q    Type
REMARK                         _______ _______ _______ _____ _____    ______ ____
ROOT
ATOM      1  CA  TRP A   2      58.105  11.524  -4.777  0.00  0.00    +0.153 C 
ENDROOT
BRANCH   1   4
ATOM      2  C   SER A   1      56.803  12.198  -6.730  0.00  0.00    +0.241 C 
ATOM      3  O   SER A   1      55.808  12.465  -6.071  0.00  0.00    -0.274 OA
ATOM      4  N   TRP A   2      57.922  11.685  -6.211  0.00  0.00    -0.297 N 
ATOM      5  H   TRP A   2      58.686  11.392  -6.852  0.00  0.00    +0.150 HD
BRANCH   2   6
ATOM      6  CA  SER A   1      56.809  12.461  -8.212  0.00  0.00    +0.174 C 
BRANCH   6   7
ATOM      7  N   SER A   1      55.453  12.733  -8.685  0.00  0.00    -0.236 NA
ATOM      8  H   SER A   1      54.816  13.341  -8.132  0.00  0.00    +0.142 HD
ENDBRANCH   6   7
BRANCH   6   9
ATOM      9  CB  SER A   1      57.730  13.643  -8.528  0.00  0.00    +0.163 C 
BRANCH   9  10
ATOM     10  OG  SER A   1      57.409  14.755  -7.706  0.00  0.00    -0.380 OA
ATOM     11  H   SER A   1      56.470  15.025  -7.869  0.00  0.00    +0.211 HD
ENDBRANCH   9  10
ENDBRANCH   6   9
ENDBRANCH   2   6
ENDBRANCH   1   4
BRANCH   1  12
ATOM     12  C   TRP A   2      58.963  12.695  -4.306  0.00  0.00    +0.241 C 
ATOM     13  N   ASP A   3      58.375  13.537  -3.475  0.00  0.00    -0.297 N 
ATOM     14  H   ASP A   3      57.439  13.295  -3.092  0.00  0.00    +0.150 HD
ATOM     15  O   TRP A   2      60.148  12.798  -4.659  0.00  0.00    -0.273 OA
BRANCH  13  16
ATOM     16  CA  ASP A   3      58.999  14.800  -3.076  0.00  0.00    +0.160 C 
BRANCH  16  17
ATOM     17  C   ASP A   3      59.440  14.658  -1.636  0.00  0.00    +0.241 C 
ATOM     18  O   ASP A   3      58.624  14.759  -0.726  0.00  0.00    -0.273 OA
ATOM     19  N   CYS A   4      60.731  14.389  -1.436  0.00  0.00    -0.297 N 
ATOM     20  H   CYS A   4      61.367  14.304  -2.255  0.00  0.00    +0.150 HD
BRANCH  19  21
ATOM     21  CA  CYS A   4      61.270  14.211  -0.091  0.00  0.00    +0.149 C 
BRANCH  21  22
ATOM     22  C   CYS A   4      62.026  15.431   0.426  0.00  0.00    +0.228 C 
ATOM     23  O   CYS A   4      63.045  15.292   1.083  0.00  0.00    -0.286 OA
ENDBRANCH  21  22
BRANCH  21  24
ATOM     24  CB  CYS A   4      62.149  12.955  -0.001  0.00  0.00    +0.096 C 
ATOM     25  SG  CYS A   4      61.235  11.477  -0.377  0.00  0.00    -0.080 S 
ENDBRANCH  21  24
ENDBRANCH  19  21
ENDBRANCH  16  17
BRANCH  16  26
ATOM     26  CB  ASP A   3      57.995  15.954  -3.275  0.00  0.00    +0.143 C 
BRANCH  26  27
ATOM     27  CG  ASP A   3      58.479  17.295  -2.704  0.00  0.00    +0.367 C 
ATOM     28  OD2 ASP A   3      59.628  17.406  -2.198  0.00  0.00    -0.246 OA
ATOM     29  OD1 ASP A   3      57.673  18.249  -2.767  0.00  0.00    -0.246 OA
ENDBRANCH  26  27
ENDBRANCH  16  26
ENDBRANCH  13  16
ENDBRANCH   1  12
BRANCH   1  30
ATOM     30  CB  TRP A   2      58.784  10.190  -4.454  0.00  0.00    +0.057 C 
BRANCH  30  31
ATOM     31  CG  TRP A   2      57.956   8.930  -4.771  0.00  0.00    -0.002 A 
ATOM     32  CD1 TRP A   2      57.171   8.228  -3.888  0.00  0.00    +0.068 A 
ATOM     33  NE1 TRP A   2      56.602   7.134  -4.509  0.00  0.00    -0.352 N 
ATOM     34  HE1 TRP A   2      55.961   6.449  -4.061  0.00  0.00    +0.166 HD
ATOM     35  CE2 TRP A   2      57.022   7.100  -5.817  0.00  0.00    +0.056 A 
ATOM     36  CZ2 TRP A   2      56.719   6.189  -6.831  0.00  0.00    +0.017 A 
ATOM     37  CH2 TRP A   2      57.282   6.402  -8.077  0.00  0.00    +0.001 A 
ATOM     38  CZ3 TRP A   2      58.158   7.505  -8.310  0.00  0.00    +0.000 A 
ATOM     39  CE3 TRP A   2      58.453   8.415  -7.297  0.00  0.00    +0.001 A 
ATOM     40  CD2 TRP A   2      57.870   8.227  -6.023  0.00  0.00    +0.013 A 
ENDBRANCH  30  31
ENDBRANCH   1  30
TORSDOF 15
REMARK  Name = ../refined-set-2016/2o4r/2o4r_pocket.pdb
REMARK  293 active torsions:
REMARK  status: ('A' for Active; 'I' for Inactive)
REMARK    1  A    between atoms: _1  and  _3
REMARK    2  A    between atoms: _3  and  _4
REMARK    3  A    between atoms: _3  and  _6
REMARK    4  A    between atoms: _6  and  _7
REMARK    5  A    between atoms: _10  and  _12
REMARK    6  A    between atoms: _12  and  _13
REMARK    7  A    between atoms: _12  and  _15
REMARK    8  A    between atoms: _15  and  _16
REMARK    9  A    between atoms: _21  and  _22
REMARK   10  A    between atoms: _24  and  _26
REMARK   11  A    between atoms: _26  and  _27
REMARK   12  A    between atoms: _26  and  _29
REMARK   13  A    between atoms: _29  and  _30
REMARK   14  A    between atoms: _34  and  _35
REMARK   15  A    between atoms: _40  and  _42
REMARK   16  A    between atoms: _42  and  _43
REMARK   17  A    between atoms: _42  and  _45
REMARK   18  A    between atoms: _45  and  _46
REMARK   19  A    between atoms: _51  and  _52
REMARK   20  A    between atoms: _54  and  _56
REMARK   21  A    between atoms: _56  and  _57
REMARK   22  A    between atoms: _56  and  _59
REMARK   23  A    between atoms: _59  and  _60
REMARK   24  A    between atoms: _66  and  _68
REMARK   25  A    between atoms: _68  and  _69
REMARK   26  A    between atoms: _68  and  _71
REMARK   27  A    between atoms: _71  and  _72
REMARK   28  A    between atoms: _78  and  _80
REMARK   29  A    between atoms: _80  and  _81
REMARK   30  A    between atoms: _80  and  _83
REMARK   31  A    between atoms: _83  and  _84
REMARK   32  A    between atoms: _84  and  _85
REMARK   33  A    between atoms: _85  and  _86
REMARK   34  A    between atoms: _95  and  _97
REMARK   35  A    between atoms: _97  and  _98
REMARK   36  A    between atoms: _97  and  _100
REMARK   37  A    between atoms: _100  and  _101
REMARK   38  A    between atoms: _101  and  _102
REMARK   39  A    between atoms: _104  and  _106
REMARK   40  A    between atoms: _106  and  _107
REMARK   41  A    between atoms: _106  and  _109
REMARK   42  A    between atoms: _109  and  _110
REMARK   43  A    between atoms: _114  and  _115
REMARK   44  A    between atoms: _120  and  _122
REMARK   45  A    between atoms: _122  and  _123
REMARK   46  A    between atoms: _122  and  _125
REMARK   47  A    between atoms: _125  and  _126
REMARK   48  A    between atoms: _131  and  _133
REMARK   49  A    between atoms: _133  and  _134
REMARK   50  A    between atoms: _133  and  _136
REMARK   51  A    between atoms: _136  and  _137
REMARK   52  A    between atoms: _140  and  _142
REMARK   53  A    between atoms: _142  and  _143
REMARK   54  A    between atoms: _146  and  _148
REMARK   55  A    between atoms: _148  and  _149
REMARK   56  A    between atoms: _148  and  _151
REMARK   57  A    between atoms: _151  and  _152
REMARK   58  A    between atoms: _155  and  _157
REMARK   59  A    between atoms: _157  and  _158
REMARK   60  A    between atoms: _157  and  _160
REMARK   61  A    between atoms: _160  and  _161
REMARK   62  A    between atoms: _164  and  _166
REMARK   63  A    between atoms: _166  and  _167
REMARK   64  A    between atoms: _166  and  _169
REMARK   65  A    between atoms: _172  and  _174
REMARK   66  A    between atoms: _174  and  _175
REMARK   67  A    between atoms: _174  and  _177
REMARK   68  A    between atoms: _177  and  _178
REMARK   69  A    between atoms: _180  and  _182
REMARK   70  A    between atoms: _182  and  _183
REMARK   71  A    between atoms: _182  and  _185
REMARK   72  A    between atoms: _185  and  _186
REMARK   73  A    between atoms: _191  and  _192
REMARK   74  A    between atoms: _194  and  _196
REMARK   75  A    between atoms: _196  and  _197
REMARK   76  A    between atoms: _196  and  _199
REMARK   77  A    between atoms: _199  and  _200
REMARK   78  A    between atoms: _202  and  _204
REMARK   79  A    between atoms: _204  and  _205
REMARK   80  A    between atoms: _204  and  _207
REMARK   81  A    between atoms: _207  and  _208
REMARK   82  A    between atoms: _211  and  _213
REMARK   83  A    between atoms: _213  and  _214
REMARK   84  A    between atoms: _213  and  _216
REMARK   85  A    between atoms: _216  and  _217
REMARK   86  A    between atoms: _217  and  _218
REMARK   87  A    between atoms: _218  and  _219
REMARK   88  A    between atoms: _219  and  _220
REMARK   89  A    between atoms: _224  and  _226
REMARK   90  A    between atoms: _226  and  _227
REMARK   91  A    between atoms: _226  and  _229
REMARK   92  A    between atoms: _232  and  _234
REMARK   93  A    between atoms: _234  and  _235
REMARK   94  A    between atoms: _238  and  _240
REMARK   95  A    between atoms: _240  and  _241
REMARK   96  A    between atoms: _240  and  _243
REMARK   97  A    between atoms: _243  and  _244
REMARK   98  A    between atoms: _247  and  _249
REMARK   99  A    between atoms: _249  and  _250
REMARK  100  A    between atoms: _249  and  _252
REMARK  101  A    between atoms: _252  and  _253
REMARK  102  A    between atoms: _253  and  _254
REMARK  103  A    between atoms: _257  and  _259
REMARK  104  A    between atoms: _259  and  _260
REMARK  105  A    between atoms: _259  and  _262
REMARK  106  A    between atoms: _265  and  _267
REMARK  107  A    between atoms: _267  and  _268
REMARK  108  A    between atoms: _267  and  _270
REMARK  109  A    between atoms: _270  and  _271
REMARK  110  A    between atoms: _274  and  _276
REMARK  111  A    between atoms: _276  and  _277
REMARK  112  A    between atoms: _276  and  _279
REMARK  113  A    between atoms: _279  and  _280
REMARK  114  A    between atoms: _280  and  _281
REMARK  115  A    between atoms: _283  and  _285
REMARK  116  A    between atoms: _285  and  _286
REMARK  117  A    between atoms: _285  and  _288
REMARK  118  A    between atoms: _288  and  _289
REMARK  119  A    between atoms: _292  and  _294
REMARK  120  A    between atoms: _294  and  _295
REMARK  121  A    between atoms: _294  and  _297
REMARK  122  A    between atoms: _297  and  _298
REMARK  123  A    between atoms: _298  and  _299
REMARK  124  A    between atoms: _299  and  _300
REMARK  125  A    between atoms: _309  and  _311
REMARK  126  A    between atoms: _311  and  _312
REMARK  127  A    between atoms: _311  and  _314
REMARK  128  A    between atoms: _314  and  _315
REMARK  129  A    between atoms: _317  and  _319
REMARK  130  A    between atoms: _319  and  _320
REMARK  131  A    between atoms: _319  and  _322
REMARK  132  A    between atoms: _322  and  _323
REMARK  133  A    between atoms: _328  and  _330
REMARK  134  A    between atoms: _330  and  _331
REMARK  135  A    between atoms: _330  and  _333
REMARK  136  A    between atoms: _333  and  _334
REMARK  137  A    between atoms: _334  and  _335
REMARK  138  A    between atoms: _340  and  _342
REMARK  139  A    between atoms: _342  and  _343
REMARK  140  A    between atoms: _342  and  _345
REMARK  141  A    between atoms: _345  and  _346
REMARK  142  A    between atoms: _348  and  _350
REMARK  143  A    between atoms: _350  and  _351
REMARK  144  A    between atoms: _350  and  _353
REMARK  145  A    between atoms: _353  and  _354
REMARK  146  A    between atoms: _360  and  _362
REMARK  147  A    between atoms: _362  and  _363
REMARK  148  A    between atoms: _362  and  _365
REMARK  149  A    between atoms: _365  and  _366
REMARK  150  A    between atoms: _368  and  _370
REMARK  151  A    between atoms: _370  and  _371
REMARK  152  A    between atoms: _370  and  _373
REMARK  153  A    between atoms: _373  and  _374
REMARK  154  A    between atoms: _384  and  _386
REMARK  155  A    between atoms: _386  and  _387
REMARK  156  A    between atoms: _386  and  _389
REMARK  157  A    between atoms: _389  and  _390
REMARK  158  A    between atoms: _393  and  _395
REMARK  159  A    between atoms: _395  and  _396
REMARK  160  A    between atoms: _395  and  _398
REMARK  161  A    between atoms: _400  and  _402
REMARK  162  A    between atoms: _402  and  _403
REMARK  163  A    between atoms: _402  and  _405
REMARK  164  A    between atoms: _405  and  _406
REMARK  165  A    between atoms: _411  and  _412
REMARK  166  A    between atoms: _414  and  _416
REMARK  167  A    between atoms: _416  and  _417
REMARK  168  A    between atoms: _416  and  _419
REMARK  169  A    between atoms: _419  and  _420
REMARK  170  A    between atoms: _420  and  _421
REMARK  171  A    between atoms: _421  and  _422
REMARK  172  A    between atoms: _422  and  _423
REMARK  173  A    between atoms: _427  and  _429
REMARK  174  A    between atoms: _429  and  _430
REMARK  175  A    between atoms: _429  and  _432
REMARK  176  A    between atoms: _432  and  _433
REMARK  177  A    between atoms: _438  and  _439
REMARK  178  A    between atoms: _441  and  _443
REMARK  179  A    between atoms: _443  and  _444
REMARK  180  A    between atoms: _443  and  _446
REMARK  181  A    between atoms: _446  and  _447
REMARK  182  A    between atoms: _450  and  _452
REMARK  183  A    between atoms: _452  and  _453
REMARK  184  A    between atoms: _452  and  _455
REMARK  185  A    between atoms: _458  and  _460
REMARK  186  A    between atoms: _460  and  _461
REMARK  187  A    between atoms: _460  and  _463
REMARK  188  A    between atoms: _463  and  _464
REMARK  189  A    between atoms: _467  and  _469
REMARK  190  A    between atoms: _469  and  _470
REMARK  191  A    between atoms: _469  and  _472
REMARK  192  A    between atoms: _475  and  _477
REMARK  193  A    between atoms: _477  and  _478
REMARK  194  A    between atoms: _477  and  _480
REMARK  195  A    between atoms: _480  and  _481
REMARK  196  A    between atoms: _483  and  _485
REMARK  197  A    between atoms: _485  and  _486
REMARK  198  A    between atoms: _485  and  _488
REMARK  199  A    between atoms: _488  and  _489
REMARK  200  A    between atoms: _489  and  _490
REMARK  201  A    between atoms: _490  and  _491
REMARK  202  A    between atoms: _491  and  _492
REMARK  203  A    between atoms: _496  and  _498
REMARK  204  A    between atoms: _498  and  _499
REMARK  205  A    between atoms: _502  and  _504
REMARK  206  A    between atoms: _504  and  _505
REMARK  207  A    between atoms: _507  and  _509
REMARK  208  A    between atoms: _509  and  _510
REMARK  209  A    between atoms: _509  and  _512
REMARK  210  A    between atoms: _512  and  _513
REMARK  211  A    between atoms: _518  and  _520
REMARK  212  A    between atoms: _520  and  _521
REMARK  213  A    between atoms: _520  and  _523
REMARK  214  A    between atoms: _523  and  _524
REMARK  215  A    between atoms: _527  and  _529
REMARK  216  A    between atoms: _529  and  _530
REMARK  217  A    between atoms: _529  and  _532
REMARK  218  A    between atoms: _532  and  _533
REMARK  219  A    between atoms: _536  and  _538
REMARK  220  A    between atoms: _538  and  _539
REMARK  221  A    between atoms: _538  and  _541
REMARK  222  A    between atoms: _541  and  _542
REMARK  223  A    between atoms: _545  and  _547
REMARK  224  A    between atoms: _547  and  _548
REMARK  225  A    between atoms: _547  and  _550
REMARK  226  A    between atoms: _550  and  _551
REMARK  227  A    between atoms: _554  and  _556
REMARK  228  A    between atoms: _556  and  _557
REMARK  229  A    between atoms: _556  and  _559
REMARK  230  A    between atoms: _559  and  _560
REMARK  231  A    between atoms: _560  and  _561
REMARK  232  A    between atoms: _566  and  _568
REMARK  233  A    between atoms: _568  and  _569
REMARK  234  A    between atoms: _568  and  _571
REMARK  235  A    between atoms: _571  and  _572
REMARK  236  A    between atoms: _577  and  _579
REMARK  237  A    between atoms: _579  and  _580
REMARK  238  A    between atoms: _579  and  _582
REMARK  239  A    between atoms: _582  and  _583
REMARK  240  A    between atoms: _585  and  _587
REMARK  241  A    between atoms: _587  and  _588
REMARK  242  A    between atoms: _587  and  _590
REMARK  243  A    between atoms: _590  and  _591
REMARK  244  A    between atoms: _591  and  _592
REMARK  245  A    between atoms: _597  and  _599
REMARK  246  A    between atoms: _599  and  _600
REMARK  247  A    between atoms: _599  and  _602
REMARK  248  A    between atoms: _602  and  _603
REMARK  249  A    between atoms: _608  and  _609
REMARK  250  A    between atoms: _611  and  _613
REMARK  251  A    between atoms: _613  and  _614
REMARK  252  A    between atoms: _613  and  _616
REMARK  253  A    between atoms: _616  and  _617
REMARK  254  A    between atoms: _617  and  _618
REMARK  255  A    between atoms: _618  and  _619
REMARK  256  A    between atoms: _628  and  _630
REMARK  257  A    between atoms: _630  and  _631
REMARK  258  A    between atoms: _630  and  _633
REMARK  259  A    between atoms: _633  and  _634
REMARK  260  A    between atoms: _637  and  _639
REMARK  261  A    between atoms: _639  and  _640
REMARK  262  A    between atoms: _639  and  _642
REMARK  263  A    between atoms: _642  and  _643
REMARK  264  A    between atoms: _645  and  _647
REMARK  265  A    between atoms: _647  and  _648
REMARK  266  A    between atoms: _647  and  _650
REMARK  267  A    between atoms: _650  and  _651
REMARK  268  A    between atoms: _656  and  _658
REMARK  269  A    between atoms: _658  and  _659
REMARK  270  A    between atoms: _658  and  _661
REMARK  271  A    between atoms: _661  and  _662
REMARK  272  A    between atoms: _662  and  _663
REMARK  273  A    between atoms: _663  and  _664
REMARK  274  A    between atoms: _664  and  _665
REMARK  275  A    between atoms: _669  and  _671
REMARK  276  A    between atoms: _671  and  _672
REMARK  277  A    between atoms: _671  and  _674
REMARK  278  A    between atoms: _674  and  _675
REMARK  279  A    between atoms: _678  and  _680
REMARK  280  A    between atoms: _680  and  _681
REMARK  281  A    between atoms: _680  and  _683
REMARK  282  A    between atoms: _683  and  _684
REMARK  283  A    between atoms: _687  and  _689
REMARK  284  A    between atoms: _689  and  _690
REMARK  285  A    between atoms: _689  and  _692
REMARK  286  A    between atoms: _695  and  _697
REMARK  287  A    between atoms: _697  and  _698
REMARK  288  A    between atoms: _697  and  _700
REMARK  289  A    between atoms: _700  and  _701
REMARK  290  A    between atoms: _704  and  _706
REMARK  291  A    between atoms: _706  and  _707
REMARK  292  A    between atoms: _706  and  _709
REMARK  293  A    between atoms: _709  and  _710
REMARK                            x       y       z     vdW  Elec       q    Type
REMARK                         _______ _______ _______ _____ _____    ______ ____
ROOT
ATOM      1  C   LYS A   2      62.695  13.735  -6.762  0.00  0.00    +0.241 C 
ATOM      2  N   TYR A   3      61.986  12.611  -6.723  0.00  0.00    -0.297 N 
ATOM      3  H   TYR A   3      61.254  12.490  -5.994  0.00  0.00    +0.150 HD
ATOM      4  O   LYS A   2      63.481  13.994  -7.678  0.00  0.00    -0.273 OA
ENDROOT
BRANCH   2   5
ATOM      5  CA  TYR A   3      62.223  11.543  -7.693  0.00  0.00    +0.153 C 
BRANCH   5   6
ATOM      6  C   TYR A   3      61.065  11.406  -8.664  0.00  0.00    +0.241 C 
ATOM      7  O   TYR A   3      59.916  11.191  -8.260  0.00  0.00    -0.273 OA
ATOM      8  N   ASP A   4      61.369  11.531  -9.950  0.00  0.00    -0.297 N 
ATOM      9  H   ASP A   4      62.351  11.730 -10.230  0.00  0.00    +0.150 HD
BRANCH   8  10
ATOM     10  CA  ASP A   4      60.338  11.392 -10.976  0.00  0.00    +0.160 C 
BRANCH  10  11
ATOM     11  C   ASP A   4      60.533  10.101 -11.740  0.00  0.00    +0.241 C 
ATOM     12  O   ASP A   4      61.452   9.332 -11.457  0.00  0.00    -0.273 OA
ATOM     13  N   VAL A   5      59.690   9.859 -12.731  0.00  0.00    -0.298 N 
ATOM     14  H   VAL A   5      58.959  10.558 -12.971  0.00  0.00    +0.150 HD
BRANCH  13  15
ATOM     15  CA  VAL A   5      59.782   8.616 -13.487  0.00  0.00    +0.137 C 
BRANCH  15  16
ATOM     16  CB  VAL A   5      58.675   8.534 -14.583  0.00  0.00    +0.026 C 
ATOM     17  CG2 VAL A   5      57.338   8.404 -13.926  0.00  0.00    +0.002 C 
ATOM     18  CG1 VAL A   5      58.698   9.773 -15.481  0.00  0.00    +0.002 C 
ENDBRANCH  15  16
BRANCH  15  19
ATOM     19  C   VAL A   5      61.179   8.379 -14.098  0.00  0.00    +0.227 C 
ATOM     20  O   VAL A   5      61.666   7.252 -14.139  0.00  0.00    -0.286 OA
ENDBRANCH  15  19
ENDBRANCH  13  15
ENDBRANCH  10  11
BRANCH  10  21
ATOM     21  CB  ASP A   4      60.294  12.630 -11.905  0.00  0.00    +0.143 C 
BRANCH  21  22
ATOM     22  CG  ASP A   4      61.560  12.819 -12.692  0.00  0.00    +0.367 C 
ATOM     23  OD2 ASP A   4      62.541  12.071 -12.498  0.00  0.00    -0.246 OA
ATOM     24  OD1 ASP A   4      61.588  13.727 -13.533  0.00  0.00    -0.246 OA
ENDBRANCH  21  22
ENDBRANCH  10  21
ENDBRANCH   8  10
ENDBRANCH   5   6
BRANCH   5  25
ATOM     25  CB  TYR A   3      62.512  10.202  -6.987  0.00  0.00    +0.055 C 
BRANCH  25  26
ATOM     26  CG  TYR A   3      63.428  10.347  -5.777  0.00  0.00    -0.020 A 
ATOM     27  CD2 TYR A   3      62.913  10.267  -4.481  0.00  0.00    -0.001 A 
ATOM     28  CE2 TYR A   3      63.760  10.442  -3.357  0.00  0.00    +0.036 A 
ATOM     29  CZ  TYR A   3      65.109  10.680  -3.542  0.00  0.00    +0.134 A 
ATOM     30  CE1 TYR A   3      65.645  10.778  -4.830  0.00  0.00    +0.036 A 
ATOM     31  CD1 TYR A   3      64.813  10.620  -5.937  0.00  0.00    -0.001 A 
BRANCH  29  32
ATOM     32  OH  TYR A   3      65.922  10.829  -2.425  0.00  0.00    -0.506 OA
ATOM     33  HH  TYR A   3      66.629  10.136  -2.438  0.00  0.00    +0.292 HD
ENDBRANCH  29  32
ENDBRANCH  25  26
ENDBRANCH   5  25
ENDBRANCH   2   5
BRANCH   1  34
ATOM     34  CA  LYS A   2      62.543  14.688  -5.584  0.00  0.00    +0.149 C 
BRANCH  34  37
ATOM     35  C   TYR A   1      63.989  14.372  -3.643  0.00  0.00    +0.239 C 
ATOM     36  O   TYR A   1      63.070  14.077  -2.892  0.00  0.00    -0.274 OA
ATOM     37  N   LYS A   2      63.820  14.748  -4.911  0.00  0.00    -0.297 N 
ATOM     38  H   LYS A   2      64.644  15.100  -5.439  0.00  0.00    +0.150 HD
BRANCH  35  39
ATOM     39  CA  TYR A   1      65.421  14.350  -3.144  0.00  0.00    +0.149 C 
BRANCH  39  40
ATOM     40  N   TYR A   1      66.148  15.537  -3.593  0.00  0.00    -0.238 NA
ATOM     41  H   TYR A   1      65.928  16.453  -3.153  0.00  0.00    +0.142 HD
ENDBRANCH  39  40
BRANCH  39  42
ATOM     42  CB  TYR A   1      65.477  14.217  -1.608  0.00  0.00    +0.053 C 
BRANCH  42  43
ATOM     43  CG  TYR A   1      66.889  14.350  -1.046  0.00  0.00    -0.020 A 
ATOM     44  CD2 TYR A   1      67.139  15.087   0.114  0.00  0.00    -0.001 A 
ATOM     45  CE2 TYR A   1      68.436  15.223   0.611  0.00  0.00    +0.036 A 
ATOM     46  CZ  TYR A   1      69.506  14.640  -0.075  0.00  0.00    +0.134 A 
ATOM     47  CE1 TYR A   1      69.278  13.924  -1.240  0.00  0.00    +0.036 A 
ATOM     48  CD1 TYR A   1      67.979  13.787  -1.715  0.00  0.00    -0.001 A 
BRANCH  46  49
ATOM     49  OH  TYR A   1      70.805  14.759   0.386  0.00  0.00    -0.506 OA
ATOM     50  HH  TYR A   1      71.357  15.211  -0.300  0.00  0.00    +0.292 HD
ENDBRANCH  46  49
ENDBRANCH  42  43
ENDBRANCH  39  42
ENDBRANCH  35  39
ENDBRANCH  34  37
BRANCH  34  51
ATOM     51  CB  LYS A   2      62.096  16.086  -6.030  0.00  0.00    +0.029 C 
BRANCH  51  52
ATOM     52  CG  LYS A   2      60.651  16.152  -6.495  0.00  0.00    +0.000 C 
BRANCH  52  53
ATOM     53  CD  LYS A   2      60.192  17.580  -6.623  0.00  0.00    -0.024 C 
BRANCH  53  54
ATOM     54  CE  LYS A   2      58.790  17.656  -7.201  0.00  0.00    -0.086 C 
BRANCH  54  55
ATOM     55  NZ  LYS A   2      58.126  18.950  -6.832  0.00  0.00    +0.380 N 
ATOM     56  HZ1 LYS A   2      58.065  19.024  -5.796  0.00  0.00    -0.089 HD
ATOM     57  HZ2 LYS A   2      58.685  19.744  -7.205  0.00  0.00    -0.089 HD
ATOM     58  HZ3 LYS A   2      57.170  18.976  -7.240  0.00  0.00    -0.089 HD
ENDBRANCH  54  55
ENDBRANCH  53  54
ENDBRANCH  52  53
ENDBRANCH  51  52
ENDBRANCH  34  51
ENDBRANCH   1  34
TORSDOF 24
REMARK  Name = ../refined-set-2016/2o4r/2o4r_pocket.pdb
REMARK  293 active torsions:
REMARK  status: ('A' for Active; 'I' for Inactive)
REMARK    1  A    between atoms: _1  and  _3
REMARK    2  A    between atoms: _3  and  _4
REMARK    3  A    between atoms: _3  and  _6
REMARK    4  A    between atoms: _6  and  _7
REMARK    5  A    between atoms: _10  and  _12
REMARK    6  A    between atoms: _12  and  _13
REMARK    7  A    between atoms: _12  and  _15
REMARK    8  A    between atoms: _15  and  _16
REMARK    9  A    between atoms: _21  and  _22
REMARK   10  A    between atoms: _24  and  _26
REMARK   11  A    between atoms: _26  and  _27
REMARK   12  A    between atoms: _26  and  _29
REMARK   13  A    between atoms: _29  and  _30
REMARK   14  A    between atoms: _34  and  _35
REMARK   15  A    between atoms: _40  and  _42
REMARK   16  A    between atoms: _42  and  _43
REMARK   17  A    between atoms: _42  and  _45
REMARK   18  A    between atoms: _45  and  _46
REMARK   19  A    between atoms: _51  and  _52
REMARK   20  A    between atoms: _54  and  _56
REMARK   21  A    between atoms: _56  and  _57
REMARK   22  A    between atoms: _56  and  _59
REMARK   23  A    between atoms: _59  and  _60
REMARK   24  A    between atoms: _66  and  _68
REMARK   25  A    between atoms: _68  and  _69
REMARK   26  A    between atoms: _68  and  _71
REMARK   27  A    between atoms: _71  and  _72
REMARK   28  A    between atoms: _78  and  _80
REMARK   29  A    between atoms: _80  and  _81
REMARK   30  A    between atoms: _80  and  _83
REMARK   31  A    between atoms: _83  and  _84
REMARK   32  A    between atoms: _84  and  _85
REMARK   33  A    between atoms: _85  and  _86
REMARK   34  A    between atoms: _95  and  _97
REMARK   35  A    between atoms: _97  and  _98
REMARK   36  A    between atoms: _97  and  _100
REMARK   37  A    between atoms: _100  and  _101
REMARK   38  A    between atoms: _101  and  _102
REMARK   39  A    between atoms: _104  and  _106
REMARK   40  A    between atoms: _106  and  _107
REMARK   41  A    between atoms: _106  and  _109
REMARK   42  A    between atoms: _109  and  _110
REMARK   43  A    between atoms: _114  and  _115
REMARK   44  A    between atoms: _120  and  _122
REMARK   45  A    between atoms: _122  and  _123
REMARK   46  A    between atoms: _122  and  _125
REMARK   47  A    between atoms: _125  and  _126
REMARK   48  A    between atoms: _131  and  _133
REMARK   49  A    between atoms: _133  and  _134
REMARK   50  A    between atoms: _133  and  _136
REMARK   51  A    between atoms: _136  and  _137
REMARK   52  A    between atoms: _140  and  _142
REMARK   53  A    between atoms: _142  and  _143
REMARK   54  A    between atoms: _146  and  _148
REMARK   55  A    between atoms: _148  and  _149
REMARK   56  A    between atoms: _148  and  _151
REMARK   57  A    between atoms: _151  and  _152
REMARK   58  A    between atoms: _155  and  _157
REMARK   59  A    between atoms: _157  and  _158
REMARK   60  A    between atoms: _157  and  _160
REMARK   61  A    between atoms: _160  and  _161
REMARK   62  A    between atoms: _164  and  _166
REMARK   63  A    between atoms: _166  and  _167
REMARK   64  A    between atoms: _166  and  _169
REMARK   65  A    between atoms: _172  and  _174
REMARK   66  A    between atoms: _174  and  _175
REMARK   67  A    between atoms: _174  and  _177
REMARK   68  A    between atoms: _177  and  _178
REMARK   69  A    between atoms: _180  and  _182
REMARK   70  A    between atoms: _182  and  _183
REMARK   71  A    between atoms: _182  and  _185
REMARK   72  A    between atoms: _185  and  _186
REMARK   73  A    between atoms: _191  and  _192
REMARK   74  A    between atoms: _194  and  _196
REMARK   75  A    between atoms: _196  and  _197
REMARK   76  A    between atoms: _196  and  _199
REMARK   77  A    between atoms: _199  and  _200
REMARK   78  A    between atoms: _202  and  _204
REMARK   79  A    between atoms: _204  and  _205
REMARK   80  A    between atoms: _204  and  _207
REMARK   81  A    between atoms: _207  and  _208
REMARK   82  A    between atoms: _211  and  _213
REMARK   83  A    between atoms: _213  and  _214
REMARK   84  A    between atoms: _213  and  _216
REMARK   85  A    between atoms: _216  and  _217
REMARK   86  A    between atoms: _217  and  _218
REMARK   87  A    between atoms: _218  and  _219
REMARK   88  A    between atoms: _219  and  _220
REMARK   89  A    between atoms: _224  and  _226
REMARK   90  A    between atoms: _226  and  _227
REMARK   91  A    between atoms: _226  and  _229
REMARK   92  A    between atoms: _232  and  _234
REMARK   93  A    between atoms: _234  and  _235
REMARK   94  A    between atoms: _238  and  _240
REMARK   95  A    between atoms: _240  and  _241
REMARK   96  A    between atoms: _240  and  _243
REMARK   97  A    between atoms: _243  and  _244
REMARK   98  A    between atoms: _247  and  _249
REMARK   99  A    between atoms: _249  and  _250
REMARK  100  A    between atoms: _249  and  _252
REMARK  101  A    between atoms: _252  and  _253
REMARK  102  A    between atoms: _253  and  _254
REMARK  103  A    between atoms: _257  and  _259
REMARK  104  A    between atoms: _259  and  _260
REMARK  105  A    between atoms: _259  and  _262
REMARK  106  A    between atoms: _265  and  _267
REMARK  107  A    between atoms: _267  and  _268
REMARK  108  A    between atoms: _267  and  _270
REMARK  109  A    between atoms: _270  and  _271
REMARK  110  A    between atoms: _274  and  _276
REMARK  111  A    between atoms: _276  and  _277
REMARK  112  A    between atoms: _276  and  _279
REMARK  113  A    between atoms: _279  and  _280
REMARK  114  A    between atoms: _280  and  _281
REMARK  115  A    between atoms: _283  and  _285
REMARK  116  A    between atoms: _285  and  _286
REMARK  117  A    between atoms: _285  and  _288
REMARK  118  A    between atoms: _288  and  _289
REMARK  119  A    between atoms: _292  and  _294
REMARK  120  A    between atoms: _294  and  _295
REMARK  121  A    between atoms: _294  and  _297
REMARK  122  A    between atoms: _297  and  _298
REMARK  123  A    between atoms: _298  and  _299
REMARK  124  A    between atoms: _299  and  _300
REMARK  125  A    between atoms: _309  and  _311
REMARK  126  A    between atoms: _311  and  _312
REMARK  127  A    between atoms: _311  and  _314
REMARK  128  A    between atoms: _314  and  _315
REMARK  129  A    between atoms: _317  and  _319
REMARK  130  A    between atoms: _319  and  _320
REMARK  131  A    between atoms: _319  and  _322
REMARK  132  A    between atoms: _322  and  _323
REMARK  133  A    between atoms: _328  and  _330
REMARK  134  A    between atoms: _330  and  _331
REMARK  135  A    between atoms: _330  and  _333
REMARK  136  A    between atoms: _333  and  _334
REMARK  137  A    between atoms: _334  and  _335
REMARK  138  A    between atoms: _340  and  _342
REMARK  139  A    between atoms: _342  and  _343
REMARK  140  A    between atoms: _342  and  _345
REMARK  141  A    between atoms: _345  and  _346
REMARK  142  A    between atoms: _348  and  _350
REMARK  143  A    between atoms: _350  and  _351
REMARK  144  A    between atoms: _350  and  _353
REMARK  145  A    between atoms: _353  and  _354
REMARK  146  A    between atoms: _360  and  _362
REMARK  147  A    between atoms: _362  and  _363
REMARK  148  A    between atoms: _362  and  _365
REMARK  149  A    between atoms: _365  and  _366
REMARK  150  A    between atoms: _368  and  _370
REMARK  151  A    between atoms: _370  and  _371
REMARK  152  A    between atoms: _370  and  _373
REMARK  153  A    between atoms: _373  and  _374
REMARK  154  A    between atoms: _384  and  _386
REMARK  155  A    between atoms: _386  and  _387
REMARK  156  A    between atoms: _386  and  _389
REMARK  157  A    between atoms: _389  and  _390
REMARK  158  A    between atoms: _393  and  _395
REMARK  159  A    between atoms: _395  and  _396
REMARK  160  A    between atoms: _395  and  _398
REMARK  161  A    between atoms: _400  and  _402
REMARK  162  A    between atoms: _402  and  _403
REMARK  163  A    between atoms: _402  and  _405
REMARK  164  A    between atoms: _405  and  _406
REMARK  165  A    between atoms: _411  and  _412
REMARK  166  A    between atoms: _414  and  _416
REMARK  167  A    between atoms: _416  and  _417
REMARK  168  A    between atoms: _416  and  _419
REMARK  169  A    between atoms: _419  and  _420
REMARK  170  A    between atoms: _420  and  _421
REMARK  171  A    between atoms: _421  and  _422
REMARK  172  A    between atoms: _422  and  _423
REMARK  173  A    between atoms: _427  and  _429
REMARK  174  A    between atoms: _429  and  _430
REMARK  175  A    between atoms: _429  and  _432
REMARK  176  A    between atoms: _432  and  _433
REMARK  177  A    between atoms: _438  and  _439
REMARK  178  A    between atoms: _441  and  _443
REMARK  179  A    between atoms: _443  and  _444
REMARK  180  A    between atoms: _443  and  _446
REMARK  181  A    between atoms: _446  and  _447
REMARK  182  A    between atoms: _450  and  _452
REMARK  183  A    between atoms: _452  and  _453
REMARK  184  A    between atoms: _452  and  _455
REMARK  185  A    between atoms: _458  and  _460
REMARK  186  A    between atoms: _460  and  _461
REMARK  187  A    between atoms: _460  and  _463
REMARK  188  A    between atoms: _463  and  _464
REMARK  189  A    between atoms: _467  and  _469
REMARK  190  A    between atoms: _469  and  _470
REMARK  191  A    between atoms: _469  and  _472
REMARK  192  A    between atoms: _475  and  _477
REMARK  193  A    between atoms: _477  and  _478
REMARK  194  A    between atoms: _477  and  _480
REMARK  195  A    between atoms: _480  and  _481
REMARK  196  A    between atoms: _483  and  _485
REMARK  197  A    between atoms: _485  and  _486
REMARK  198  A    between atoms: _485  and  _488
REMARK  199  A    between atoms: _488  and  _489
REMARK  200  A    between atoms: _489  and  _490
REMARK  201  A    between atoms: _490  and  _491
REMARK  202  A    between atoms: _491  and  _492
REMARK  203  A    between atoms: _496  and  _498
REMARK  204  A    between atoms: _498  and  _499
REMARK  205  A    between atoms: _502  and  _504
REMARK  206  A    between atoms: _504  and  _505
REMARK  207  A    between atoms: _507  and  _509
REMARK  208  A    between atoms: _509  and  _510
REMARK  209  A    between atoms: _509  and  _512
REMARK  210  A    between atoms: _512  and  _513
REMARK  211  A    between atoms: _518  and  _520
REMARK  212  A    between atoms: _520  and  _521
REMARK  213  A    between atoms: _520  and  _523
REMARK  214  A    between atoms: _523  and  _524
REMARK  215  A    between atoms: _527  and  _529
REMARK  216  A    between atoms: _529  and  _530
REMARK  217  A    between atoms: _529  and  _532
REMARK  218  A    between atoms: _532  and  _533
REMARK  219  A    between atoms: _536  and  _538
REMARK  220  A    between atoms: _538  and  _539
REMARK  221  A    between atoms: _538  and  _541
REMARK  222  A    between atoms: _541  and  _542
REMARK  223  A    between atoms: _545  and  _547
REMARK  224  A    between atoms: _547  and  _548
REMARK  225  A    between atoms: _547  and  _550
REMARK  226  A    between atoms: _550  and  _551
REMARK  227  A    between atoms: _554  and  _556
REMARK  228  A    between atoms: _556  and  _557
REMARK  229  A    between atoms: _556  and  _559
REMARK  230  A    between atoms: _559  and  _560
REMARK  231  A    between atoms: _560  and  _561
REMARK  232  A    between atoms: _566  and  _568
REMARK  233  A    between atoms: _568  and  _569
REMARK  234  A    between atoms: _568  and  _571
REMARK  235  A    between atoms: _571  and  _572
REMARK  236  A    between atoms: _577  and  _579
REMARK  237  A    between atoms: _579  and  _580
REMARK  238  A    between atoms: _579  and  _582
REMARK  239  A    between atoms: _582  and  _583
REMARK  240  A    between atoms: _585  and  _587
REMARK  241  A    between atoms: _587  and  _588
REMARK  242  A    between atoms: _587  and  _590
REMARK  243  A    between atoms: _590  and  _591
REMARK  244  A    between atoms: _591  and  _592
REMARK  245  A    between atoms: _597  and  _599
REMARK  246  A    between atoms: _599  and  _600
REMARK  247  A    between atoms: _599  and  _602
REMARK  248  A    between atoms: _602  and  _603
REMARK  249  A    between atoms: _608  and  _609
REMARK  250  A    between atoms: _611  and  _613
REMARK  251  A    between atoms: _613  and  _614
REMARK  252  A    between atoms: _613  and  _616
REMARK  253  A    between atoms: _616  and  _617
REMARK  254  A    between atoms: _617  and  _618
REMARK  255  A    between atoms: _618  and  _619
REMARK  256  A    between atoms: _628  and  _630
REMARK  257  A    between atoms: _630  and  _631
REMARK  258  A    between atoms: _630  and  _633
REMARK  259  A    between atoms: _633  and  _634
REMARK  260  A    between atoms: _637  and  _639
REMARK  261  A    between atoms: _639  and  _640
REMARK  262  A    between atoms: _639  and  _642
REMARK  263  A    between atoms: _642  and  _643
REMARK  264  A    between atoms: _645  and  _647
REMARK  265  A    between atoms: _647  and  _648
REMARK  266  A    between atoms: _647  and  _650
REMARK  267  A    between atoms: _650  and  _651
REMARK  268  A    between atoms: _656  and  _658
REMARK  269  A    between atoms: _658  and  _659
REMARK  270  A    between atoms: _658  and  _661
REMARK  271  A    between atoms: _661  and  _662
REMARK  272  A    between atoms: _662  and  _663
REMARK  273  A    between atoms: _663  and  _664
REMARK  274  A    between atoms: _664  and  _665
REMARK  275  A    between atoms: _669  and  _671
REMARK  276  A    between atoms: _671  and  _672
REMARK  277  A    between atoms: _671  and  _674
REMARK  278  A    between atoms: _674  and  _675
REMARK  279  A    between atoms: _678  and  _680
REMARK  280  A    between atoms: _680  and  _681
REMARK  281  A    between atoms: _680  and  _683
REMARK  282  A    between atoms: _683  and  _684
REMARK  283  A    between atoms: _687  and  _689
REMARK  284  A    between atoms: _689  and  _690
REMARK  285  A    between atoms: _689  and  _692
REMARK  286  A    between atoms: _695  and  _697
REMARK  287  A    between atoms: _697  and  _698
REMARK  288  A    between atoms: _697  and  _700
REMARK  289  A    between atoms: _700  and  _701
REMARK  290  A    between atoms: _704  and  _706
REMARK  291  A    between atoms: _706  and  _707
REMARK  292  A    between atoms: _706  and  _709
REMARK  293  A    between atoms: _709  and  _710
REMARK                            x       y       z     vdW  Elec       q    Type
REMARK                         _______ _______ _______ _____ _____    ______ ____
ROOT
ATOM      1  CA  LYS A   4      68.023   5.775 -14.015  0.00  0.00    +0.149 C 
ENDROOT
BRANCH   1   3
ATOM      2  C   SER A   3      66.034   4.601 -14.857  0.00  0.00    +0.243 C 
ATOM      3  N   LYS A   4      66.580   5.658 -14.260  0.00  0.00    -0.297 N 
ATOM      4  H   LYS A   4      65.958   6.434 -13.954  0.00  0.00    +0.150 HD
ATOM      5  O   SER A   3      66.682   3.675 -15.335  0.00  0.00    -0.273 OA
BRANCH   2   6
ATOM      6  CA  SER A   3      64.508   4.567 -14.893  0.00  0.00    +0.178 C 
BRANCH   6   9
ATOM      7  C   VAL A   2      64.114   4.786 -12.508  0.00  0.00    +0.241 C 
ATOM      8  O   VAL A   2      64.663   3.700 -12.294  0.00  0.00    -0.273 OA
ATOM      9  N   SER A   3      63.962   5.284 -13.736  0.00  0.00    -0.295 N 
ATOM     10  H   SER A   3      63.456   6.182 -13.873  0.00  0.00    +0.150 HD
BRANCH   7  11
ATOM     11  CA  VAL A   2      63.513   5.587 -11.347  0.00  0.00    +0.148 C 
BRANCH  11  14
ATOM     12  C   ASP A   1      64.921   7.533 -11.593  0.00  0.00    +0.239 C 
ATOM     13  O   ASP A   1      65.936   6.854 -11.410  0.00  0.00    -0.274 OA
ATOM     14  N   VAL A   2      63.695   7.008 -11.561  0.00  0.00    -0.297 N 
ATOM     15  H   VAL A   2      62.866   7.622 -11.690  0.00  0.00    +0.150 HD
BRANCH  12  16
ATOM     16  CA  ASP A   1      65.032   9.037 -11.859  0.00  0.00    +0.156 C 
BRANCH  16  17
ATOM     17  N   ASP A   1      64.171   9.510 -12.957  0.00  0.00    -0.238 NA
ATOM     18  H   ASP A   1      63.516  10.298 -12.780  0.00  0.00    +0.142 HD
ENDBRANCH  16  17
BRANCH  16  19
ATOM     19  CB  ASP A   1      64.732   9.798 -10.559  0.00  0.00    +0.140 C 
BRANCH  19  20
ATOM     20  CG  ASP A   1      65.102  11.269 -10.643  0.00  0.00    +0.367 C 
ATOM     21  OD2 ASP A   1      64.400  12.089 -10.020  0.00  0.00    -0.246 OA
ATOM     22  OD1 ASP A   1      66.096  11.618 -11.329  0.00  0.00    -0.246 OA
ENDBRANCH  19  20
ENDBRANCH  16  19
ENDBRANCH  12  16
ENDBRANCH  11  14
BRANCH  11  23
ATOM     23  CB  VAL A   2      62.019   5.185 -11.139  0.00  0.00    +0.027 C 
ATOM     24  CG2 VAL A   2      61.359   5.985  -9.985  0.00  0.00    +0.002 C 
ATOM     25  CG1 VAL A   2      61.912   3.664 -10.852  0.00  0.00    +0.002 C 
ENDBRANCH  11  23
ENDBRANCH   7  11
ENDBRANCH   6   9
BRANCH   6  26
ATOM     26  CB  SER A   3      63.987   5.128 -16.216  0.00  0.00    +0.166 C 
BRANCH  26  27
ATOM     27  OG  SER A   3      64.549   6.401 -16.423  0.00  0.00    -0.380 OA
ATOM     28  H   SER A   3      64.289   7.000 -15.679  0.00  0.00    +0.211 HD
ENDBRANCH  26  27
ENDBRANCH   6  26
ENDBRANCH   2   6
ENDBRANCH   1   3
BRANCH   1  29
ATOM     29  C   LYS A   4      68.533   4.928 -12.823  0.00  0.00    +0.241 C 
ATOM     30  N   ALA A   5      67.649   4.114 -12.241  0.00  0.00    -0.297 N 
ATOM     31  H   ALA A   5      66.642   4.217 -12.479  0.00  0.00    +0.150 HD
ATOM     32  O   LYS A   4      69.727   4.977 -12.475  0.00  0.00    -0.273 OA
BRANCH  30  33
ATOM     33  CA  ALA A   5      68.049   3.072 -11.271  0.00  0.00    +0.149 C 
ATOM     34  CB  ALA A   5      67.178   3.115 -10.021  0.00  0.00    +0.031 C 
BRANCH  33  35
ATOM     35  C   ALA A   5      68.006   1.675 -11.868  0.00  0.00    +0.241 C 
ATOM     36  O   ALA A   5      68.172   0.687 -11.136  0.00  0.00    -0.273 OA
ATOM     37  N   GLY A   6      67.741   1.574 -13.173  0.00  0.00    -0.295 N 
ATOM     38  H   GLY A   6      67.519   2.428 -13.724  0.00  0.00    +0.150 HD
BRANCH  37  39
ATOM     39  CA  GLY A   6      67.761   0.260 -13.836  0.00  0.00    +0.176 C 
BRANCH  39  40
ATOM     40  C   GLY A   6      66.429  -0.428 -14.084  0.00  0.00    +0.243 C 
ATOM     41  N   HIS A   7      65.337   0.310 -13.903  0.00  0.00    -0.298 N 
ATOM     42  H   HIS A   7      65.443   1.307 -13.629  0.00  0.00    +0.150 HD
ATOM     43  O   GLY A   6      66.388  -1.625 -14.440  0.00  0.00    -0.273 OA
BRANCH  41  44
ATOM     44  CA  HIS A   7      63.995  -0.235 -14.077  0.00  0.00    +0.143 C 
BRANCH  44  45
ATOM     45  C   HIS A   7      63.294   0.366 -15.285  0.00  0.00    +0.227 C 
ATOM     46  O   HIS A   7      63.617   1.454 -15.705  0.00  0.00    -0.286 OA
ENDBRANCH  44  45
BRANCH  44  47
ATOM     47  CB  HIS A   7      63.175  -0.072 -12.781  0.00  0.00    +0.075 C 
BRANCH  47  48
ATOM     48  CG  HIS A   7      63.663  -0.956 -11.674  0.00  0.00    +0.082 A 
ATOM     49  CD2 HIS A   7      64.426  -0.687 -10.589  0.00  0.00    +0.115 A 
ATOM     50  NE2 HIS A   7      64.613  -1.875  -9.921  0.00  0.00    -0.221 NA
ATOM     51  CE1 HIS A   7      63.986  -2.836 -10.575  0.00  0.00    +0.199 A 
ATOM     52  ND1 HIS A   7      63.407  -2.305 -11.634  0.00  0.00    -0.227 NA
ENDBRANCH  47  48
ENDBRANCH  44  47
ENDBRANCH  41  44
ENDBRANCH  39  40
ENDBRANCH  37  39
ENDBRANCH  33  35
ENDBRANCH  30  33
ENDBRANCH   1  29
BRANCH   1  53
ATOM     53  CB  LYS A   4      68.400   7.261 -13.877  0.00  0.00    +0.029 C 
BRANCH  53  54
ATOM     54  CG  LYS A   4      68.297   8.005 -15.211  0.00  0.00    +0.000 C 
BRANCH  54  55
ATOM     55  CD  LYS A   4      68.521   9.489 -15.031  0.00  0.00    -0.024 C 
BRANCH  55  56
ATOM     56  CE  LYS A   4      68.048  10.320 -16.241  0.00  0.00    -0.086 C 
BRANCH  56  57
ATOM     57  NZ  LYS A   4      66.545  10.329 -16.401  0.00  0.00    +0.380 N 
ATOM     58  HZ1 LYS A   4      66.109  10.735 -15.549  0.00  0.00    -0.089 HD
ATOM     59  HZ2 LYS A   4      66.206   9.355 -16.534  0.00  0.00    -0.089 HD
ATOM     60  HZ3 LYS A   4      66.289  10.903 -17.230  0.00  0.00    -0.089 HD
ENDBRANCH  56  57
ENDBRANCH  55  56
ENDBRANCH  54  55
ENDBRANCH  53  54
ENDBRANCH   1  53
TORSDOF 26
REMARK  Name = ../refined-set-2016/2o4r/2o4r_pocket.pdb
REMARK  293 active torsions:
REMARK  status: ('A' for Active; 'I' for Inactive)
REMARK    1  A    between atoms: _1  and  _3
REMARK    2  A    between atoms: _3  and  _4
REMARK    3  A    between atoms: _3  and  _6
REMARK    4  A    between atoms: _6  and  _7
REMARK    5  A    between atoms: _10  and  _12
REMARK    6  A    between atoms: _12  and  _13
REMARK    7  A    between atoms: _12  and  _15
REMARK    8  A    between atoms: _15  and  _16
REMARK    9  A    between atoms: _21  and  _22
REMARK   10  A    between atoms: _24  and  _26
REMARK   11  A    between atoms: _26  and  _27
REMARK   12  A    between atoms: _26  and  _29
REMARK   13  A    between atoms: _29  and  _30
REMARK   14  A    between atoms: _34  and  _35
REMARK   15  A    between atoms: _40  and  _42
REMARK   16  A    between atoms: _42  and  _43
REMARK   17  A    between atoms: _42  and  _45
REMARK   18  A    between atoms: _45  and  _46
REMARK   19  A    between atoms: _51  and  _52
REMARK   20  A    between atoms: _54  and  _56
REMARK   21  A    between atoms: _56  and  _57
REMARK   22  A    between atoms: _56  and  _59
REMARK   23  A    between atoms: _59  and  _60
REMARK   24  A    between atoms: _66  and  _68
REMARK   25  A    between atoms: _68  and  _69
REMARK   26  A    between atoms: _68  and  _71
REMARK   27  A    between atoms: _71  and  _72
REMARK   28  A    between atoms: _78  and  _80
REMARK   29  A    between atoms: _80  and  _81
REMARK   30  A    between atoms: _80  and  _83
REMARK   31  A    between atoms: _83  and  _84
REMARK   32  A    between atoms: _84  and  _85
REMARK   33  A    between atoms: _85  and  _86
REMARK   34  A    between atoms: _95  and  _97
REMARK   35  A    between atoms: _97  and  _98
REMARK   36  A    between atoms: _97  and  _100
REMARK   37  A    between atoms: _100  and  _101
REMARK   38  A    between atoms: _101  and  _102
REMARK   39  A    between atoms: _104  and  _106
REMARK   40  A    between atoms: _106  and  _107
REMARK   41  A    between atoms: _106  and  _109
REMARK   42  A    between atoms: _109  and  _110
REMARK   43  A    between atoms: _114  and  _115
REMARK   44  A    between atoms: _120  and  _122
REMARK   45  A    between atoms: _122  and  _123
REMARK   46  A    between atoms: _122  and  _125
REMARK   47  A    between atoms: _125  and  _126
REMARK   48  A    between atoms: _131  and  _133
REMARK   49  A    between atoms: _133  and  _134
REMARK   50  A    between atoms: _133  and  _136
REMARK   51  A    between atoms: _136  and  _137
REMARK   52  A    between atoms: _140  and  _142
REMARK   53  A    between atoms: _142  and  _143
REMARK   54  A    between atoms: _146  and  _148
REMARK   55  A    between atoms: _148  and  _149
REMARK   56  A    between atoms: _148  and  _151
REMARK   57  A    between atoms: _151  and  _152
REMARK   58  A    between atoms: _155  and  _157
REMARK   59  A    between atoms: _157  and  _158
REMARK   60  A    between atoms: _157  and  _160
REMARK   61  A    between atoms: _160  and  _161
REMARK   62  A    between atoms: _164  and  _166
REMARK   63  A    between atoms: _166  and  _167
REMARK   64  A    between atoms: _166  and  _169
REMARK   65  A    between atoms: _172  and  _174
REMARK   66  A    between atoms: _174  and  _175
REMARK   67  A    between atoms: _174  and  _177
REMARK   68  A    between atoms: _177  and  _178
REMARK   69  A    between atoms: _180  and  _182
REMARK   70  A    between atoms: _182  and  _183
REMARK   71  A    between atoms: _182  and  _185
REMARK   72  A    between atoms: _185  and  _186
REMARK   73  A    between atoms: _191  and  _192
REMARK   74  A    between atoms: _194  and  _196
REMARK   75  A    between atoms: _196  and  _197
REMARK   76  A    between atoms: _196  and  _199
REMARK   77  A    between atoms: _199  and  _200
REMARK   78  A    between atoms: _202  and  _204
REMARK   79  A    between atoms: _204  and  _205
REMARK   80  A    between atoms: _204  and  _207
REMARK   81  A    between atoms: _207  and  _208
REMARK   82  A    between atoms: _211  and  _213
REMARK   83  A    between atoms: _213  and  _214
REMARK   84  A    between atoms: _213  and  _216
REMARK   85  A    between atoms: _216  and  _217
REMARK   86  A    between atoms: _217  and  _218
REMARK   87  A    between atoms: _218  and  _219
REMARK   88  A    between atoms: _219  and  _220
REMARK   89  A    between atoms: _224  and  _226
REMARK   90  A    between atoms: _226  and  _227
REMARK   91  A    between atoms: _226  and  _229
REMARK   92  A    between atoms: _232  and  _234
REMARK   93  A    between atoms: _234  and  _235
REMARK   94  A    between atoms: _238  and  _240
REMARK   95  A    between atoms: _240  and  _241
REMARK   96  A    between atoms: _240  and  _243
REMARK   97  A    between atoms: _243  and  _244
REMARK   98  A    between atoms: _247  and  _249
REMARK   99  A    between atoms: _249  and  _250
REMARK  100  A    between atoms: _249  and  _252
REMARK  101  A    between atoms: _252  and  _253
REMARK  102  A    between atoms: _253  and  _254
REMARK  103  A    between atoms: _257  and  _259
REMARK  104  A    between atoms: _259  and  _260
REMARK  105  A    between atoms: _259  and  _262
REMARK  106  A    between atoms: _265  and  _267
REMARK  107  A    between atoms: _267  and  _268
REMARK  108  A    between atoms: _267  and  _270
REMARK  109  A    between atoms: _270  and  _271
REMARK  110  A    between atoms: _274  and  _276
REMARK  111  A    between atoms: _276  and  _277
REMARK  112  A    between atoms: _276  and  _279
REMARK  113  A    between atoms: _279  and  _280
REMARK  114  A    between atoms: _280  and  _281
REMARK  115  A    between atoms: _283  and  _285
REMARK  116  A    between atoms: _285  and  _286
REMARK  117  A    between atoms: _285  and  _288
REMARK  118  A    between atoms: _288  and  _289
REMARK  119  A    between atoms: _292  and  _294
REMARK  120  A    between atoms: _294  and  _295
REMARK  121  A    between atoms: _294  and  _297
REMARK  122  A    between atoms: _297  and  _298
REMARK  123  A    between atoms: _298  and  _299
REMARK  124  A    between atoms: _299  and  _300
REMARK  125  A    between atoms: _309  and  _311
REMARK  126  A    between atoms: _311  and  _312
REMARK  127  A    between atoms: _311  and  _314
REMARK  128  A    between atoms: _314  and  _315
REMARK  129  A    between atoms: _317  and  _319
REMARK  130  A    between atoms: _319  and  _320
REMARK  131  A    between atoms: _319  and  _322
REMARK  132  A    between atoms: _322  and  _323
REMARK  133  A    between atoms: _328  and  _330
REMARK  134  A    between atoms: _330  and  _331
REMARK  135  A    between atoms: _330  and  _333
REMARK  136  A    between atoms: _333  and  _334
REMARK  137  A    between atoms: _334  and  _335
REMARK  138  A    between atoms: _340  and  _342
REMARK  139  A    between atoms: _342  and  _343
REMARK  140  A    between atoms: _342  and  _345
REMARK  141  A    between atoms: _345  and  _346
REMARK  142  A    between atoms: _348  and  _350
REMARK  143  A    between atoms: _350  and  _351
REMARK  144  A    between atoms: _350  and  _353
REMARK  145  A    between atoms: _353  and  _354
REMARK  146  A    between atoms: _360  and  _362
REMARK  147  A    between atoms: _362  and  _363
REMARK  148  A    between atoms: _362  and  _365
REMARK  149  A    between atoms: _365  and  _366
REMARK  150  A    between atoms: _368  and  _370
REMARK  151  A    between atoms: _370  and  _371
REMARK  152  A    between atoms: _370  and  _373
REMARK  153  A    between atoms: _373  and  _374
REMARK  154  A    between atoms: _384  and  _386
REMARK  155  A    between atoms: _386  and  _387
REMARK  156  A    between atoms: _386  and  _389
REMARK  157  A    between atoms: _389  and  _390
REMARK  158  A    between atoms: _393  and  _395
REMARK  159  A    between atoms: _395  and  _396
REMARK  160  A    between atoms: _395  and  _398
REMARK  161  A    between atoms: _400  and  _402
REMARK  162  A    between atoms: _402  and  _403
REMARK  163  A    between atoms: _402  and  _405
REMARK  164  A    between atoms: _405  and  _406
REMARK  165  A    between atoms: _411  and  _412
REMARK  166  A    between atoms: _414  and  _416
REMARK  167  A    between atoms: _416  and  _417
REMARK  168  A    between atoms: _416  and  _419
REMARK  169  A    between atoms: _419  and  _420
REMARK  170  A    between atoms: _420  and  _421
REMARK  171  A    between atoms: _421  and  _422
REMARK  172  A    between atoms: _422  and  _423
REMARK  173  A    between atoms: _427  and  _429
REMARK  174  A    between atoms: _429  and  _430
REMARK  175  A    between atoms: _429  and  _432
REMARK  176  A    between atoms: _432  and  _433
REMARK  177  A    between atoms: _438  and  _439
REMARK  178  A    between atoms: _441  and  _443
REMARK  179  A    between atoms: _443  and  _444
REMARK  180  A    between atoms: _443  and  _446
REMARK  181  A    between atoms: _446  and  _447
REMARK  182  A    between atoms: _450  and  _452
REMARK  183  A    between atoms: _452  and  _453
REMARK  184  A    between atoms: _452  and  _455
REMARK  185  A    between atoms: _458  and  _460
REMARK  186  A    between atoms: _460  and  _461
REMARK  187  A    between atoms: _460  and  _463
REMARK  188  A    between atoms: _463  and  _464
REMARK  189  A    between atoms: _467  and  _469
REMARK  190  A    between atoms: _469  and  _470
REMARK  191  A    between atoms: _469  and  _472
REMARK  192  A    between atoms: _475  and  _477
REMARK  193  A    between atoms: _477  and  _478
REMARK  194  A    between atoms: _477  and  _480
REMARK  195  A    between atoms: _480  and  _481
REMARK  196  A    between atoms: _483  and  _485
REMARK  197  A    between atoms: _485  and  _486
REMARK  198  A    between atoms: _485  and  _488
REMARK  199  A    between atoms: _488  and  _489
REMARK  200  A    between atoms: _489  and  _490
REMARK  201  A    between atoms: _490  and  _491
REMARK  202  A    between atoms: _491  and  _492
REMARK  203  A    between atoms: _496  and  _498
REMARK  204  A    between atoms: _498  and  _499
REMARK  205  A    between atoms: _502  and  _504
REMARK  206  A    between atoms: _504  and  _505
REMARK  207  A    between atoms: _507  and  _509
REMARK  208  A    between atoms: _509  and  _510
REMARK  209  A    between atoms: _509  and  _512
REMARK  210  A    between atoms: _512  and  _513
REMARK  211  A    between atoms: _518  and  _520
REMARK  212  A    between atoms: _520  and  _521
REMARK  213  A    between atoms: _520  and  _523
REMARK  214  A    between atoms: _523  and  _524
REMARK  215  A    between atoms: _527  and  _529
REMARK  216  A    between atoms: _529  and  _530
REMARK  217  A    between atoms: _529  and  _532
REMARK  218  A    between atoms: _532  and  _533
REMARK  219  A    between atoms: _536  and  _538
REMARK  220  A    between atoms: _538  and  _539
REMARK  221  A    between atoms: _538  and  _541
REMARK  222  A    between atoms: _541  and  _542
REMARK  223  A    between atoms: _545  and  _547
REMARK  224  A    between atoms: _547  and  _548
REMARK  225  A    between atoms: _547  and  _550
REMARK  226  A    between atoms: _550  and  _551
REMARK  227  A    between atoms: _554  and  _556
REMARK  228  A    between atoms: _556  and  _557
REMARK  229  A    between atoms: _556  and  _559
REMARK  230  A    between atoms: _559  and  _560
REMARK  231  A    between atoms: _560  and  _561
REMARK  232  A    between atoms: _566  and  _568
REMARK  233  A    between atoms: _568  and  _569
REMARK  234  A    between atoms: _568  and  _571
REMARK  235  A    between atoms: _571  and  _572
REMARK  236  A    between atoms: _577  and  _579
REMARK  237  A    between atoms: _579  and  _580
REMARK  238  A    between atoms: _579  and  _582
REMARK  239  A    between atoms: _582  and  _583
REMARK  240  A    between atoms: _585  and  _587
REMARK  241  A    between atoms: _587  and  _588
REMARK  242  A    between atoms: _587  and  _590
REMARK  243  A    between atoms: _590  and  _591
REMARK  244  A    between atoms: _591  and  _592
REMARK  245  A    between atoms: _597  and  _599
REMARK  246  A    between atoms: _599  and  _600
REMARK  247  A    between atoms: _599  and  _602
REMARK  248  A    between atoms: _602  and  _603
REMARK  249  A    between atoms: _608  and  _609
REMARK  250  A    between atoms: _611  and  _613
REMARK  251  A    between atoms: _613  and  _614
REMARK  252  A    between atoms: _613  and  _616
REMARK  253  A    between atoms: _616  and  _617
REMARK  254  A    between atoms: _617  and  _618
REMARK  255  A    between atoms: _618  and  _619
REMARK  256  A    between atoms: _628  and  _630
REMARK  257  A    between atoms: _630  and  _631
REMARK  258  A    between atoms: _630  and  _633
REMARK  259  A    between atoms: _633  and  _634
REMARK  260  A    between atoms: _637  and  _639
REMARK  261  A    between atoms: _639  and  _640
REMARK  262  A    between atoms: _639  and  _642
REMARK  263  A    between atoms: _642  and  _643
REMARK  264  A    between atoms: _645  and  _647
REMARK  265  A    between atoms: _647  and  _648
REMARK  266  A    between atoms: _647  and  _650
REMARK  267  A    between atoms: _650  and  _651
REMARK  268  A    between atoms: _656  and  _658
REMARK  269  A    between atoms: _658  and  _659
REMARK  270  A    between atoms: _658  and  _661
REMARK  271  A    between atoms: _661  and  _662
REMARK  272  A    between atoms: _662  and  _663
REMARK  273  A    between atoms: _663  and  _664
REMARK  274  A    between atoms: _664  and  _665
REMARK  275  A    between atoms: _669  and  _671
REMARK  276  A    between atoms: _671  and  _672
REMARK  277  A    between atoms: _671  and  _674
REMARK  278  A    between atoms: _674  and  _675
REMARK  279  A    between atoms: _678  and  _680
REMARK  280  A    between atoms: _680  and  _681
REMARK  281  A    between atoms: _680  and  _683
REMARK  282  A    between atoms: _683  and  _684
REMARK  283  A    between atoms: _687  and  _689
REMARK  284  A    between atoms: _689  and  _690
REMARK  285  A    between atoms: _689  and  _692
REMARK  286  A    between atoms: _695  and  _697
REMARK  287  A    between atoms: _697  and  _698
REMARK  288  A    between atoms: _697  and  _700
REMARK  289  A    between atoms: _700  and  _701
REMARK  290  A    between atoms: _704  and  _706
REMARK  291  A    between atoms: _706  and  _707
REMARK  292  A    between atoms: _706  and  _709
REMARK  293  A    between atoms: _709  and  _710
REMARK                            x       y       z     vdW  Elec       q    Type
REMARK                         _______ _______ _______ _____ _____    ______ ____
ROOT
ATOM      1  C   LEU A   1      56.848  -0.103 -13.254  0.00  0.00    +0.238 C 
ATOM      2  O   LEU A   1      55.931   0.057 -12.460  0.00  0.00    -0.274 OA
ATOM      3  N   ILE A   2      57.489   0.909 -13.836  0.00  0.00    -0.298 N 
ATOM      4  H   ILE A   2      58.182   0.716 -14.587  0.00  0.00    +0.150 HD
ENDROOT
BRANCH   1   5
ATOM      5  CA  LEU A   1      57.329  -1.491 -13.576  0.00  0.00    +0.145 C 
BRANCH   5   6
ATOM      6  N   LEU A   1      57.521  -1.672 -15.029  0.00  0.00    -0.238 NA
ATOM      7  H   LEU A   1      58.410  -1.353 -15.464  0.00  0.00    +0.142 HD
ENDBRANCH   5   6
BRANCH   5   8
ATOM      8  CB  LEU A   1      58.614  -1.756 -12.788  0.00  0.00    +0.026 C 
BRANCH   8   9
ATOM      9  CG  LEU A   1      58.491  -1.638 -11.247  0.00  0.00    +0.002 C 
ATOM     10  CD2 LEU A   1      59.876  -1.661 -10.600  0.00  0.00    +0.000 C 
ATOM     11  CD1 LEU A   1      57.672  -2.777 -10.719  0.00  0.00    +0.000 C 
ENDBRANCH   8   9
ENDBRANCH   5   8
ENDBRANCH   1   5
BRANCH   3  12
ATOM     12  CA  ILE A   2      57.225   2.300 -13.425  0.00  0.00    +0.137 C 
BRANCH  12  13
ATOM     13  C   ILE A   2      55.809   2.803 -13.734  0.00  0.00    +0.227 C 
ATOM     14  O   ILE A   2      55.234   3.538 -12.929  0.00  0.00    -0.286 OA
ENDBRANCH  12  13
BRANCH  12  15
ATOM     15  CB  ILE A   2      58.278   3.275 -13.999  0.00  0.00    +0.026 C 
ATOM     16  CG2 ILE A   2      57.974   4.738 -13.611  0.00  0.00    +0.002 C 
BRANCH  15  17
ATOM     17  CG1 ILE A   2      59.690   2.823 -13.599  0.00  0.00    +0.002 C 
ATOM     18  CD1 ILE A   2      60.783   3.481 -14.434  0.00  0.00    +0.000 C 
ENDBRANCH  15  17
ENDBRANCH  12  15
ENDBRANCH   3  12
TORSDOF 8
REMARK  Name = ../refined-set-2016/2o4r/2o4r_pocket.pdb
REMARK  293 active torsions:
REMARK  status: ('A' for Active; 'I' for Inactive)
REMARK    1  A    between atoms: _1  and  _3
REMARK    2  A    between atoms: _3  and  _4
REMARK    3  A    between atoms: _3  and  _6
REMARK    4  A    between atoms: _6  and  _7
REMARK    5  A    between atoms: _10  and  _12
REMARK    6  A    between atoms: _12  and  _13
REMARK    7  A    between atoms: _12  and  _15
REMARK    8  A    between atoms: _15  and  _16
REMARK    9  A    between atoms: _21  and  _22
REMARK   10  A    between atoms: _24  and  _26
REMARK   11  A    between atoms: _26  and  _27
REMARK   12  A    between atoms: _26  and  _29
REMARK   13  A    between atoms: _29  and  _30
REMARK   14  A    between atoms: _34  and  _35
REMARK   15  A    between atoms: _40  and  _42
REMARK   16  A    between atoms: _42  and  _43
REMARK   17  A    between atoms: _42  and  _45
REMARK   18  A    between atoms: _45  and  _46
REMARK   19  A    between atoms: _51  and  _52
REMARK   20  A    between atoms: _54  and  _56
REMARK   21  A    between atoms: _56  and  _57
REMARK   22  A    between atoms: _56  and  _59
REMARK   23  A    between atoms: _59  and  _60
REMARK   24  A    between atoms: _66  and  _68
REMARK   25  A    between atoms: _68  and  _69
REMARK   26  A    between atoms: _68  and  _71
REMARK   27  A    between atoms: _71  and  _72
REMARK   28  A    between atoms: _78  and  _80
REMARK   29  A    between atoms: _80  and  _81
REMARK   30  A    between atoms: _80  and  _83
REMARK   31  A    between atoms: _83  and  _84
REMARK   32  A    between atoms: _84  and  _85
REMARK   33  A    between atoms: _85  and  _86
REMARK   34  A    between atoms: _95  and  _97
REMARK   35  A    between atoms: _97  and  _98
REMARK   36  A    between atoms: _97  and  _100
REMARK   37  A    between atoms: _100  and  _101
REMARK   38  A    between atoms: _101  and  _102
REMARK   39  A    between atoms: _104  and  _106
REMARK   40  A    between atoms: _106  and  _107
REMARK   41  A    between atoms: _106  and  _109
REMARK   42  A    between atoms: _109  and  _110
REMARK   43  A    between atoms: _114  and  _115
REMARK   44  A    between atoms: _120  and  _122
REMARK   45  A    between atoms: _122  and  _123
REMARK   46  A    between atoms: _122  and  _125
REMARK   47  A    between atoms: _125  and  _126
REMARK   48  A    between atoms: _131  and  _133
REMARK   49  A    between atoms: _133  and  _134
REMARK   50  A    between atoms: _133  and  _136
REMARK   51  A    between atoms: _136  and  _137
REMARK   52  A    between atoms: _140  and  _142
REMARK   53  A    between atoms: _142  and  _143
REMARK   54  A    between atoms: _146  and  _148
REMARK   55  A    between atoms: _148  and  _149
REMARK   56  A    between atoms: _148  and  _151
REMARK   57  A    between atoms: _151  and  _152
REMARK   58  A    between atoms: _155  and  _157
REMARK   59  A    between atoms: _157  and  _158
REMARK   60  A    between atoms: _157  and  _160
REMARK   61  A    between atoms: _160  and  _161
REMARK   62  A    between atoms: _164  and  _166
REMARK   63  A    between atoms: _166  and  _167
REMARK   64  A    between atoms: _166  and  _169
REMARK   65  A    between atoms: _172  and  _174
REMARK   66  A    between atoms: _174  and  _175
REMARK   67  A    between atoms: _174  and  _177
REMARK   68  A    between atoms: _177  and  _178
REMARK   69  A    between atoms: _180  and  _182
REMARK   70  A    between atoms: _182  and  _183
REMARK   71  A    between atoms: _182  and  _185
REMARK   72  A    between atoms: _185  and  _186
REMARK   73  A    between atoms: _191  and  _192
REMARK   74  A    between atoms: _194  and  _196
REMARK   75  A    between atoms: _196  and  _197
REMARK   76  A    between atoms: _196  and  _199
REMARK   77  A    between atoms: _199  and  _200
REMARK   78  A    between atoms: _202  and  _204
REMARK   79  A    between atoms: _204  and  _205
REMARK   80  A    between atoms: _204  and  _207
REMARK   81  A    between atoms: _207  and  _208
REMARK   82  A    between atoms: _211  and  _213
REMARK   83  A    between atoms: _213  and  _214
REMARK   84  A    between atoms: _213  and  _216
REMARK   85  A    between atoms: _216  and  _217
REMARK   86  A    between atoms: _217  and  _218
REMARK   87  A    between atoms: _218  and  _219
REMARK   88  A    between atoms: _219  and  _220
REMARK   89  A    between atoms: _224  and  _226
REMARK   90  A    between atoms: _226  and  _227
REMARK   91  A    between atoms: _226  and  _229
REMARK   92  A    between atoms: _232  and  _234
REMARK   93  A    between atoms: _234  and  _235
REMARK   94  A    between atoms: _238  and  _240
REMARK   95  A    between atoms: _240  and  _241
REMARK   96  A    between atoms: _240  and  _243
REMARK   97  A    between atoms: _243  and  _244
REMARK   98  A    between atoms: _247  and  _249
REMARK   99  A    between atoms: _249  and  _250
REMARK  100  A    between atoms: _249  and  _252
REMARK  101  A    between atoms: _252  and  _253
REMARK  102  A    between atoms: _253  and  _254
REMARK  103  A    between atoms: _257  and  _259
REMARK  104  A    between atoms: _259  and  _260
REMARK  105  A    between atoms: _259  and  _262
REMARK  106  A    between atoms: _265  and  _267
REMARK  107  A    between atoms: _267  and  _268
REMARK  108  A    between atoms: _267  and  _270
REMARK  109  A    between atoms: _270  and  _271
REMARK  110  A    between atoms: _274  and  _276
REMARK  111  A    between atoms: _276  and  _277
REMARK  112  A    between atoms: _276  and  _279
REMARK  113  A    between atoms: _279  and  _280
REMARK  114  A    between atoms: _280  and  _281
REMARK  115  A    between atoms: _283  and  _285
REMARK  116  A    between atoms: _285  and  _286
REMARK  117  A    between atoms: _285  and  _288
REMARK  118  A    between atoms: _288  and  _289
REMARK  119  A    between atoms: _292  and  _294
REMARK  120  A    between atoms: _294  and  _295
REMARK  121  A    between atoms: _294  and  _297
REMARK  122  A    between atoms: _297  and  _298
REMARK  123  A    between atoms: _298  and  _299
REMARK  124  A    between atoms: _299  and  _300
REMARK  125  A    between atoms: _309  and  _311
REMARK  126  A    between atoms: _311  and  _312
REMARK  127  A    between atoms: _311  and  _314
REMARK  128  A    between atoms: _314  and  _315
REMARK  129  A    between atoms: _317  and  _319
REMARK  130  A    between atoms: _319  and  _320
REMARK  131  A    between atoms: _319  and  _322
REMARK  132  A    between atoms: _322  and  _323
REMARK  133  A    between atoms: _328  and  _330
REMARK  134  A    between atoms: _330  and  _331
REMARK  135  A    between atoms: _330  and  _333
REMARK  136  A    between atoms: _333  and  _334
REMARK  137  A    between atoms: _334  and  _335
REMARK  138  A    between atoms: _340  and  _342
REMARK  139  A    between atoms: _342  and  _343
REMARK  140  A    between atoms: _342  and  _345
REMARK  141  A    between atoms: _345  and  _346
REMARK  142  A    between atoms: _348  and  _350
REMARK  143  A    between atoms: _350  and  _351
REMARK  144  A    between atoms: _350  and  _353
REMARK  145  A    between atoms: _353  and  _354
REMARK  146  A    between atoms: _360  and  _362
REMARK  147  A    between atoms: _362  and  _363
REMARK  148  A    between atoms: _362  and  _365
REMARK  149  A    between atoms: _365  and  _366
REMARK  150  A    between atoms: _368  and  _370
REMARK  151  A    between atoms: _370  and  _371
REMARK  152  A    between atoms: _370  and  _373
REMARK  153  A    between atoms: _373  and  _374
REMARK  154  A    between atoms: _384  and  _386
REMARK  155  A    between atoms: _386  and  _387
REMARK  156  A    between atoms: _386  and  _389
REMARK  157  A    between atoms: _389  and  _390
REMARK  158  A    between atoms: _393  and  _395
REMARK  159  A    between atoms: _395  and  _396
REMARK  160  A    between atoms: _395  and  _398
REMARK  161  A    between atoms: _400  and  _402
REMARK  162  A    between atoms: _402  and  _403
REMARK  163  A    between atoms: _402  and  _405
REMARK  164  A    between atoms: _405  and  _406
REMARK  165  A    between atoms: _411  and  _412
REMARK  166  A    between atoms: _414  and  _416
REMARK  167  A    between atoms: _416  and  _417
REMARK  168  A    between atoms: _416  and  _419
REMARK  169  A    between atoms: _419  and  _420
REMARK  170  A    between atoms: _420  and  _421
REMARK  171  A    between atoms: _421  and  _422
REMARK  172  A    between atoms: _422  and  _423
REMARK  173  A    between atoms: _427  and  _429
REMARK  174  A    between atoms: _429  and  _430
REMARK  175  A    between atoms: _429  and  _432
REMARK  176  A    between atoms: _432  and  _433
REMARK  177  A    between atoms: _438  and  _439
REMARK  178  A    between atoms: _441  and  _443
REMARK  179  A    between atoms: _443  and  _444
REMARK  180  A    between atoms: _443  and  _446
REMARK  181  A    between atoms: _446  and  _447
REMARK  182  A    between atoms: _450  and  _452
REMARK  183  A    between atoms: _452  and  _453
REMARK  184  A    between atoms: _452  and  _455
REMARK  185  A    between atoms: _458  and  _460
REMARK  186  A    between atoms: _460  and  _461
REMARK  187  A    between atoms: _460  and  _463
REMARK  188  A    between atoms: _463  and  _464
REMARK  189  A    between atoms: _467  and  _469
REMARK  190  A    between atoms: _469  and  _470
REMARK  191  A    between atoms: _469  and  _472
REMARK  192  A    between atoms: _475  and  _477
REMARK  193  A    between atoms: _477  and  _478
REMARK  194  A    between atoms: _477  and  _480
REMARK  195  A    between atoms: _480  and  _481
REMARK  196  A    between atoms: _483  and  _485
REMARK  197  A    between atoms: _485  and  _486
REMARK  198  A    between atoms: _485  and  _488
REMARK  199  A    between atoms: _488  and  _489
REMARK  200  A    between atoms: _489  and  _490
REMARK  201  A    between atoms: _490  and  _491
REMARK  202  A    between atoms: _491  and  _492
REMARK  203  A    between atoms: _496  and  _498
REMARK  204  A    between atoms: _498  and  _499
REMARK  205  A    between atoms: _502  and  _504
REMARK  206  A    between atoms: _504  and  _505
REMARK  207  A    between atoms: _507  and  _509
REMARK  208  A    between atoms: _509  and  _510
REMARK  209  A    between atoms: _509  and  _512
REMARK  210  A    between atoms: _512  and  _513
REMARK  211  A    between atoms: _518  and  _520
REMARK  212  A    between atoms: _520  and  _521
REMARK  213  A    between atoms: _520  and  _523
REMARK  214  A    between atoms: _523  and  _524
REMARK  215  A    between atoms: _527  and  _529
REMARK  216  A    between atoms: _529  and  _530
REMARK  217  A    between atoms: _529  and  _532
REMARK  218  A    between atoms: _532  and  _533
REMARK  219  A    between atoms: _536  and  _538
REMARK  220  A    between atoms: _538  and  _539
REMARK  221  A    between atoms: _538  and  _541
REMARK  222  A    between atoms: _541  and  _542
REMARK  223  A    between atoms: _545  and  _547
REMARK  224  A    between atoms: _547  and  _548
REMARK  225  A    between atoms: _547  and  _550
REMARK  226  A    between atoms: _550  and  _551
REMARK  227  A    between atoms: _554  and  _556
REMARK  228  A    between atoms: _556  and  _557
REMARK  229  A    between atoms: _556  and  _559
REMARK  230  A    between atoms: _559  and  _560
REMARK  231  A    between atoms: _560  and  _561
REMARK  232  A    between atoms: _566  and  _568
REMARK  233  A    between atoms: _568  and  _569
REMARK  234  A    between atoms: _568  and  _571
REMARK  235  A    between atoms: _571  and  _572
REMARK  236  A    between atoms: _577  and  _579
REMARK  237  A    between atoms: _579  and  _580
REMARK  238  A    between atoms: _579  and  _582
REMARK  239  A    between atoms: _582  and  _583
REMARK  240  A    between atoms: _585  and  _587
REMARK  241  A    between atoms: _587  and  _588
REMARK  242  A    between atoms: _587  and  _590
REMARK  243  A    between atoms: _590  and  _591
REMARK  244  A    between atoms: _591  and  _592
REMARK  245  A    between atoms: _597  and  _599
REMARK  246  A    between atoms: _599  and  _600
REMARK  247  A    between atoms: _599  and  _602
REMARK  248  A    between atoms: _602  and  _603
REMARK  249  A    between atoms: _608  and  _609
REMARK  250  A    between atoms: _611  and  _613
REMARK  251  A    between atoms: _613  and  _614
REMARK  252  A    between atoms: _613  and  _616
REMARK  253  A    between atoms: _616  and  _617
REMARK  254  A    between atoms: _617  and  _618
REMARK  255  A    between atoms: _618  and  _619
REMARK  256  A    between atoms: _628  and  _630
REMARK  257  A    between atoms: _630  and  _631
REMARK  258  A    between atoms: _630  and  _633
REMARK  259  A    between atoms: _633  and  _634
REMARK  260  A    between atoms: _637  and  _639
REMARK  261  A    between atoms: _639  and  _640
REMARK  262  A    between atoms: _639  and  _642
REMARK  263  A    between atoms: _642  and  _643
REMARK  264  A    between atoms: _645  and  _647
REMARK  265  A    between atoms: _647  and  _648
REMARK  266  A    between atoms: _647  and  _650
REMARK  267  A    between atoms: _650  and  _651
REMARK  268  A    between atoms: _656  and  _658
REMARK  269  A    between atoms: _658  and  _659
REMARK  270  A    between atoms: _658  and  _661
REMARK  271  A    between atoms: _661  and  _662
REMARK  272  A    between atoms: _662  and  _663
REMARK  273  A    between atoms: _663  and  _664
REMARK  274  A    between atoms: _664  and  _665
REMARK  275  A    between atoms: _669  and  _671
REMARK  276  A    between atoms: _671  and  _672
REMARK  277  A    between atoms: _671  and  _674
REMARK  278  A    between atoms: _674  and  _675
REMARK  279  A    between atoms: _678  and  _680
REMARK  280  A    between atoms: _680  and  _681
REMARK  281  A    between atoms: _680  and  _683
REMARK  282  A    between atoms: _683  and  _684
REMARK  283  A    between atoms: _687  and  _689
REMARK  284  A    between atoms: _689  and  _690
REMARK  285  A    between atoms: _689  and  _692
REMARK  286  A    between atoms: _695  and  _697
REMARK  287  A    between atoms: _697  and  _698
REMARK  288  A    between atoms: _697  and  _700
REMARK  289  A    between atoms: _700  and  _701
REMARK  290  A    between atoms: _704  and  _706
REMARK  291  A    between atoms: _706  and  _707
REMARK  292  A    between atoms: _706  and  _709
REMARK  293  A    between atoms: _709  and  _710
REMARK                            x       y       z     vdW  Elec       q    Type
REMARK                         _______ _______ _______ _____ _____    ______ ____
ROOT
ATOM      1  C   LEU A   1      53.294   3.275  -9.771  0.00  0.00    +0.238 C 
ATOM      2  O   LEU A   1      52.702   3.559  -8.722  0.00  0.00    -0.274 OA
ATOM      3  N   ILE A   2      53.422   4.125 -10.787  0.00  0.00    -0.298 N 
ATOM      4  H   ILE A   2      53.967   3.834 -11.623  0.00  0.00    +0.150 HD
ENDROOT
BRANCH   1   5
ATOM      5  CA  LEU A   1      53.908   1.893  -9.968  0.00  0.00    +0.145 C 
BRANCH   5   6
ATOM      6  N   LEU A   1      53.538   1.339 -11.275  0.00  0.00    -0.238 NA
ATOM      7  H   LEU A   1      54.277   1.157 -11.984  0.00  0.00    +0.142 HD
ENDBRANCH   5   6
BRANCH   5   8
ATOM      8  CB  LEU A   1      55.435   1.934  -9.776  0.00  0.00    +0.026 C 
BRANCH   8   9
ATOM      9  CG  LEU A   1      55.920   2.583  -8.450  0.00  0.00    +0.002 C 
ATOM     10  CD2 LEU A   1      55.281   1.946  -7.210  0.00  0.00    +0.000 C 
ATOM     11  CD1 LEU A   1      57.444   2.555  -8.343  0.00  0.00    +0.000 C 
ENDBRANCH   8   9
ENDBRANCH   5   8
ENDBRANCH   1   5
BRANCH   3  12
ATOM     12  CA  ILE A   2      52.816   5.461 -10.761  0.00  0.00    +0.137 C 
BRANCH  12  13
ATOM     13  C   ILE A   2      51.294   5.391 -10.692  0.00  0.00    +0.227 C 
ATOM     14  O   ILE A   2      50.659   6.139  -9.935  0.00  0.00    -0.286 OA
ENDBRANCH  12  13
BRANCH  12  15
ATOM     15  CB  ILE A   2      53.245   6.306 -11.973  0.00  0.00    +0.026 C 
ATOM     16  CG2 ILE A   2      52.324   7.570 -12.146  0.00  0.00    +0.002 C 
BRANCH  15  17
ATOM     17  CG1 ILE A   2      54.738   6.666 -11.883  0.00  0.00    +0.002 C 
ATOM     18  CD1 ILE A   2      55.108   7.572 -10.697  0.00  0.00    +0.000 C 
ENDBRANCH  15  17
ENDBRANCH  12  15
ENDBRANCH   3  12
TORSDOF 8
REMARK  Name = ../refined-set-2016/2o4r/2o4r_pocket.pdb
REMARK  293 active torsions:
REMARK  status: ('A' for Active; 'I' for Inactive)
REMARK    1  A    between atoms: _1  and  _3
REMARK    2  A    between atoms: _3  and  _4
REMARK    3  A    between atoms: _3  and  _6
REMARK    4  A    between atoms: _6  and  _7
REMARK    5  A    between atoms: _10  and  _12
REMARK    6  A    between atoms: _12  and  _13
REMARK    7  A    between atoms: _12  and  _15
REMARK    8  A    between atoms: _15  and  _16
REMARK    9  A    between atoms: _21  and  _22
REMARK   10  A    between atoms: _24  and  _26
REMARK   11  A    between atoms: _26  and  _27
REMARK   12  A    between atoms: _26  and  _29
REMARK   13  A    between atoms: _29  and  _30
REMARK   14  A    between atoms: _34  and  _35
REMARK   15  A    between atoms: _40  and  _42
REMARK   16  A    between atoms: _42  and  _43
REMARK   17  A    between atoms: _42  and  _45
REMARK   18  A    between atoms: _45  and  _46
REMARK   19  A    between atoms: _51  and  _52
REMARK   20  A    between atoms: _54  and  _56
REMARK   21  A    between atoms: _56  and  _57
REMARK   22  A    between atoms: _56  and  _59
REMARK   23  A    between atoms: _59  and  _60
REMARK   24  A    between atoms: _66  and  _68
REMARK   25  A    between atoms: _68  and  _69
REMARK   26  A    between atoms: _68  and  _71
REMARK   27  A    between atoms: _71  and  _72
REMARK   28  A    between atoms: _78  and  _80
REMARK   29  A    between atoms: _80  and  _81
REMARK   30  A    between atoms: _80  and  _83
REMARK   31  A    between atoms: _83  and  _84
REMARK   32  A    between atoms: _84  and  _85
REMARK   33  A    between atoms: _85  and  _86
REMARK   34  A    between atoms: _95  and  _97
REMARK   35  A    between atoms: _97  and  _98
REMARK   36  A    between atoms: _97  and  _100
REMARK   37  A    between atoms: _100  and  _101
REMARK   38  A    between atoms: _101  and  _102
REMARK   39  A    between atoms: _104  and  _106
REMARK   40  A    between atoms: _106  and  _107
REMARK   41  A    between atoms: _106  and  _109
REMARK   42  A    between atoms: _109  and  _110
REMARK   43  A    between atoms: _114  and  _115
REMARK   44  A    between atoms: _120  and  _122
REMARK   45  A    between atoms: _122  and  _123
REMARK   46  A    between atoms: _122  and  _125
REMARK   47  A    between atoms: _125  and  _126
REMARK   48  A    between atoms: _131  and  _133
REMARK   49  A    between atoms: _133  and  _134
REMARK   50  A    between atoms: _133  and  _136
REMARK   51  A    between atoms: _136  and  _137
REMARK   52  A    between atoms: _140  and  _142
REMARK   53  A    between atoms: _142  and  _143
REMARK   54  A    between atoms: _146  and  _148
REMARK   55  A    between atoms: _148  and  _149
REMARK   56  A    between atoms: _148  and  _151
REMARK   57  A    between atoms: _151  and  _152
REMARK   58  A    between atoms: _155  and  _157
REMARK   59  A    between atoms: _157  and  _158
REMARK   60  A    between atoms: _157  and  _160
REMARK   61  A    between atoms: _160  and  _161
REMARK   62  A    between atoms: _164  and  _166
REMARK   63  A    between atoms: _166  and  _167
REMARK   64  A    between atoms: _166  and  _169
REMARK   65  A    between atoms: _172  and  _174
REMARK   66  A    between atoms: _174  and  _175
REMARK   67  A    between atoms: _174  and  _177
REMARK   68  A    between atoms: _177  and  _178
REMARK   69  A    between atoms: _180  and  _182
REMARK   70  A    between atoms: _182  and  _183
REMARK   71  A    between atoms: _182  and  _185
REMARK   72  A    between atoms: _185  and  _186
REMARK   73  A    between atoms: _191  and  _192
REMARK   74  A    between atoms: _194  and  _196
REMARK   75  A    between atoms: _196  and  _197
REMARK   76  A    between atoms: _196  and  _199
REMARK   77  A    between atoms: _199  and  _200
REMARK   78  A    between atoms: _202  and  _204
REMARK   79  A    between atoms: _204  and  _205
REMARK   80  A    between atoms: _204  and  _207
REMARK   81  A    between atoms: _207  and  _208
REMARK   82  A    between atoms: _211  and  _213
REMARK   83  A    between atoms: _213  and  _214
REMARK   84  A    between atoms: _213  and  _216
REMARK   85  A    between atoms: _216  and  _217
REMARK   86  A    between atoms: _217  and  _218
REMARK   87  A    between atoms: _218  and  _219
REMARK   88  A    between atoms: _219  and  _220
REMARK   89  A    between atoms: _224  and  _226
REMARK   90  A    between atoms: _226  and  _227
REMARK   91  A    between atoms: _226  and  _229
REMARK   92  A    between atoms: _232  and  _234
REMARK   93  A    between atoms: _234  and  _235
REMARK   94  A    between atoms: _238  and  _240
REMARK   95  A    between atoms: _240  and  _241
REMARK   96  A    between atoms: _240  and  _243
REMARK   97  A    between atoms: _243  and  _244
REMARK   98  A    between atoms: _247  and  _249
REMARK   99  A    between atoms: _249  and  _250
REMARK  100  A    between atoms: _249  and  _252
REMARK  101  A    between atoms: _252  and  _253
REMARK  102  A    between atoms: _253  and  _254
REMARK  103  A    between atoms: _257  and  _259
REMARK  104  A    between atoms: _259  and  _260
REMARK  105  A    between atoms: _259  and  _262
REMARK  106  A    between atoms: _265  and  _267
REMARK  107  A    between atoms: _267  and  _268
REMARK  108  A    between atoms: _267  and  _270
REMARK  109  A    between atoms: _270  and  _271
REMARK  110  A    between atoms: _274  and  _276
REMARK  111  A    between atoms: _276  and  _277
REMARK  112  A    between atoms: _276  and  _279
REMARK  113  A    between atoms: _279  and  _280
REMARK  114  A    between atoms: _280  and  _281
REMARK  115  A    between atoms: _283  and  _285
REMARK  116  A    between atoms: _285  and  _286
REMARK  117  A    between atoms: _285  and  _288
REMARK  118  A    between atoms: _288  and  _289
REMARK  119  A    between atoms: _292  and  _294
REMARK  120  A    between atoms: _294  and  _295
REMARK  121  A    between atoms: _294  and  _297
REMARK  122  A    between atoms: _297  and  _298
REMARK  123  A    between atoms: _298  and  _299
REMARK  124  A    between atoms: _299  and  _300
REMARK  125  A    between atoms: _309  and  _311
REMARK  126  A    between atoms: _311  and  _312
REMARK  127  A    between atoms: _311  and  _314
REMARK  128  A    between atoms: _314  and  _315
REMARK  129  A    between atoms: _317  and  _319
REMARK  130  A    between atoms: _319  and  _320
REMARK  131  A    between atoms: _319  and  _322
REMARK  132  A    between atoms: _322  and  _323
REMARK  133  A    between atoms: _328  and  _330
REMARK  134  A    between atoms: _330  and  _331
REMARK  135  A    between atoms: _330  and  _333
REMARK  136  A    between atoms: _333  and  _334
REMARK  137  A    between atoms: _334  and  _335
REMARK  138  A    between atoms: _340  and  _342
REMARK  139  A    between atoms: _342  and  _343
REMARK  140  A    between atoms: _342  and  _345
REMARK  141  A    between atoms: _345  and  _346
REMARK  142  A    between atoms: _348  and  _350
REMARK  143  A    between atoms: _350  and  _351
REMARK  144  A    between atoms: _350  and  _353
REMARK  145  A    between atoms: _353  and  _354
REMARK  146  A    between atoms: _360  and  _362
REMARK  147  A    between atoms: _362  and  _363
REMARK  148  A    between atoms: _362  and  _365
REMARK  149  A    between atoms: _365  and  _366
REMARK  150  A    between atoms: _368  and  _370
REMARK  151  A    between atoms: _370  and  _371
REMARK  152  A    between atoms: _370  and  _373
REMARK  153  A    between atoms: _373  and  _374
REMARK  154  A    between atoms: _384  and  _386
REMARK  155  A    between atoms: _386  and  _387
REMARK  156  A    between atoms: _386  and  _389
REMARK  157  A    between atoms: _389  and  _390
REMARK  158  A    between atoms: _393  and  _395
REMARK  159  A    between atoms: _395  and  _396
REMARK  160  A    between atoms: _395  and  _398
REMARK  161  A    between atoms: _400  and  _402
REMARK  162  A    between atoms: _402  and  _403
REMARK  163  A    between atoms: _402  and  _405
REMARK  164  A    between atoms: _405  and  _406
REMARK  165  A    between atoms: _411  and  _412
REMARK  166  A    between atoms: _414  and  _416
REMARK  167  A    between atoms: _416  and  _417
REMARK  168  A    between atoms: _416  and  _419
REMARK  169  A    between atoms: _419  and  _420
REMARK  170  A    between atoms: _420  and  _421
REMARK  171  A    between atoms: _421  and  _422
REMARK  172  A    between atoms: _422  and  _423
REMARK  173  A    between atoms: _427  and  _429
REMARK  174  A    between atoms: _429  and  _430
REMARK  175  A    between atoms: _429  and  _432
REMARK  176  A    between atoms: _432  and  _433
REMARK  177  A    between atoms: _438  and  _439
REMARK  178  A    between atoms: _441  and  _443
REMARK  179  A    between atoms: _443  and  _444
REMARK  180  A    between atoms: _443  and  _446
REMARK  181  A    between atoms: _446  and  _447
REMARK  182  A    between atoms: _450  and  _452
REMARK  183  A    between atoms: _452  and  _453
REMARK  184  A    between atoms: _452  and  _455
REMARK  185  A    between atoms: _458  and  _460
REMARK  186  A    between atoms: _460  and  _461
REMARK  187  A    between atoms: _460  and  _463
REMARK  188  A    between atoms: _463  and  _464
REMARK  189  A    between atoms: _467  and  _469
REMARK  190  A    between atoms: _469  and  _470
REMARK  191  A    between atoms: _469  and  _472
REMARK  192  A    between atoms: _475  and  _477
REMARK  193  A    between atoms: _477  and  _478
REMARK  194  A    between atoms: _477  and  _480
REMARK  195  A    between atoms: _480  and  _481
REMARK  196  A    between atoms: _483  and  _485
REMARK  197  A    between atoms: _485  and  _486
REMARK  198  A    between atoms: _485  and  _488
REMARK  199  A    between atoms: _488  and  _489
REMARK  200  A    between atoms: _489  and  _490
REMARK  201  A    between atoms: _490  and  _491
REMARK  202  A    between atoms: _491  and  _492
REMARK  203  A    between atoms: _496  and  _498
REMARK  204  A    between atoms: _498  and  _499
REMARK  205  A    between atoms: _502  and  _504
REMARK  206  A    between atoms: _504  and  _505
REMARK  207  A    between atoms: _507  and  _509
REMARK  208  A    between atoms: _509  and  _510
REMARK  209  A    between atoms: _509  and  _512
REMARK  210  A    between atoms: _512  and  _513
REMARK  211  A    between atoms: _518  and  _520
REMARK  212  A    between atoms: _520  and  _521
REMARK  213  A    between atoms: _520  and  _523
REMARK  214  A    between atoms: _523  and  _524
REMARK  215  A    between atoms: _527  and  _529
REMARK  216  A    between atoms: _529  and  _530
REMARK  217  A    between atoms: _529  and  _532
REMARK  218  A    between atoms: _532  and  _533
REMARK  219  A    between atoms: _536  and  _538
REMARK  220  A    between atoms: _538  and  _539
REMARK  221  A    between atoms: _538  and  _541
REMARK  222  A    between atoms: _541  and  _542
REMARK  223  A    between atoms: _545  and  _547
REMARK  224  A    between atoms: _547  and  _548
REMARK  225  A    between atoms: _547  and  _550
REMARK  226  A    between atoms: _550  and  _551
REMARK  227  A    between atoms: _554  and  _556
REMARK  228  A    between atoms: _556  and  _557
REMARK  229  A    between atoms: _556  and  _559
REMARK  230  A    between atoms: _559  and  _560
REMARK  231  A    between atoms: _560  and  _561
REMARK  232  A    between atoms: _566  and  _568
REMARK  233  A    between atoms: _568  and  _569
REMARK  234  A    between atoms: _568  and  _571
REMARK  235  A    between atoms: _571  and  _572
REMARK  236  A    between atoms: _577  and  _579
REMARK  237  A    between atoms: _579  and  _580
REMARK  238  A    between atoms: _579  and  _582
REMARK  239  A    between atoms: _582  and  _583
REMARK  240  A    between atoms: _585  and  _587
REMARK  241  A    between atoms: _587  and  _588
REMARK  242  A    between atoms: _587  and  _590
REMARK  243  A    between atoms: _590  and  _591
REMARK  244  A    between atoms: _591  and  _592
REMARK  245  A    between atoms: _597  and  _599
REMARK  246  A    between atoms: _599  and  _600
REMARK  247  A    between atoms: _599  and  _602
REMARK  248  A    between atoms: _602  and  _603
REMARK  249  A    between atoms: _608  and  _609
REMARK  250  A    between atoms: _611  and  _613
REMARK  251  A    between atoms: _613  and  _614
REMARK  252  A    between atoms: _613  and  _616
REMARK  253  A    between atoms: _616  and  _617
REMARK  254  A    between atoms: _617  and  _618
REMARK  255  A    between atoms: _618  and  _619
REMARK  256  A    between atoms: _628  and  _630
REMARK  257  A    between atoms: _630  and  _631
REMARK  258  A    between atoms: _630  and  _633
REMARK  259  A    between atoms: _633  and  _634
REMARK  260  A    between atoms: _637  and  _639
REMARK  261  A    between atoms: _639  and  _640
REMARK  262  A    between atoms: _639  and  _642
REMARK  263  A    between atoms: _642  and  _643
REMARK  264  A    between atoms: _645  and  _647
REMARK  265  A    between atoms: _647  and  _648
REMARK  266  A    between atoms: _647  and  _650
REMARK  267  A    between atoms: _650  and  _651
REMARK  268  A    between atoms: _656  and  _658
REMARK  269  A    between atoms: _658  and  _659
REMARK  270  A    between atoms: _658  and  _661
REMARK  271  A    between atoms: _661  and  _662
REMARK  272  A    between atoms: _662  and  _663
REMARK  273  A    between atoms: _663  and  _664
REMARK  274  A    between atoms: _664  and  _665
REMARK  275  A    between atoms: _669  and  _671
REMARK  276  A    between atoms: _671  and  _672
REMARK  277  A    between atoms: _671  and  _674
REMARK  278  A    between atoms: _674  and  _675
REMARK  279  A    between atoms: _678  and  _680
REMARK  280  A    between atoms: _680  and  _681
REMARK  281  A    between atoms: _680  and  _683
REMARK  282  A    between atoms: _683  and  _684
REMARK  283  A    between atoms: _687  and  _689
REMARK  284  A    between atoms: _689  and  _690
REMARK  285  A    between atoms: _689  and  _692
REMARK  286  A    between atoms: _695  and  _697
REMARK  287  A    between atoms: _697  and  _698
REMARK  288  A    between atoms: _697  and  _700
REMARK  289  A    between atoms: _700  and  _701
REMARK  290  A    between atoms: _704  and  _706
REMARK  291  A    between atoms: _706  and  _707
REMARK  292  A    between atoms: _706  and  _709
REMARK  293  A    between atoms: _709  and  _710
REMARK                            x       y       z     vdW  Elec       q    Type
REMARK                         _______ _______ _______ _____ _____    ______ ____
ROOT
ATOM      1  CB  GLN A   1      51.890   6.345  -6.563  0.00  0.00    +0.035 C 
ENDROOT
BRANCH   1   2
ATOM      2  CA  GLN A   1      50.563   5.633  -6.327  0.00  0.00    +0.134 C 
BRANCH   2   3
ATOM      3  N   GLN A   1      50.389   4.479  -7.230  0.00  0.00    -0.239 NA
ATOM      4  H   GLN A   1      51.104   4.300  -7.964  0.00  0.00    +0.142 HD
ENDBRANCH   2   3
BRANCH   2   5
ATOM      5  C   GLN A   1      49.402   6.634  -6.445  0.00  0.00    +0.224 C 
ATOM      6  O   GLN A   1      48.966   7.187  -5.462  0.00  0.00    -0.287 OA
ENDBRANCH   2   5
ENDBRANCH   1   2
BRANCH   1   7
ATOM      7  CG  GLN A   1      53.175   5.522  -6.233  0.00  0.00    +0.087 C 
BRANCH   7   8
ATOM      8  CD  GLN A   1      53.258   5.126  -4.762  0.00  0.00    +0.219 C 
ATOM      9  OE1 GLN A   1      52.747   5.831  -3.890  0.00  0.00    -0.275 OA
ATOM     10  NE2 GLN A   1      53.932   4.020  -4.480  0.00  0.00    -0.329 N 
ATOM     11 HE21 GLN A   1      54.045   3.718  -3.491  0.00  0.00    +0.145 HD
ATOM     12 HE22 GLN A   1      54.347   3.454  -5.247  0.00  0.00    +0.145 HD
ENDBRANCH   7   8
ENDBRANCH   1   7
TORSDOF 5
REMARK  Name = ../refined-set-2016/2o4r/2o4r_pocket.pdb
REMARK  293 active torsions:
REMARK  status: ('A' for Active; 'I' for Inactive)
REMARK    1  A    between atoms: _1  and  _3
REMARK    2  A    between atoms: _3  and  _4
REMARK    3  A    between atoms: _3  and  _6
REMARK    4  A    between atoms: _6  and  _7
REMARK    5  A    between atoms: _10  and  _12
REMARK    6  A    between atoms: _12  and  _13
REMARK    7  A    between atoms: _12  and  _15
REMARK    8  A    between atoms: _15  and  _16
REMARK    9  A    between atoms: _21  and  _22
REMARK   10  A    between atoms: _24  and  _26
REMARK   11  A    between atoms: _26  and  _27
REMARK   12  A    between atoms: _26  and  _29
REMARK   13  A    between atoms: _29  and  _30
REMARK   14  A    between atoms: _34  and  _35
REMARK   15  A    between atoms: _40  and  _42
REMARK   16  A    between atoms: _42  and  _43
REMARK   17  A    between atoms: _42  and  _45
REMARK   18  A    between atoms: _45  and  _46
REMARK   19  A    between atoms: _51  and  _52
REMARK   20  A    between atoms: _54  and  _56
REMARK   21  A    between atoms: _56  and  _57
REMARK   22  A    between atoms: _56  and  _59
REMARK   23  A    between atoms: _59  and  _60
REMARK   24  A    between atoms: _66  and  _68
REMARK   25  A    between atoms: _68  and  _69
REMARK   26  A    between atoms: _68  and  _71
REMARK   27  A    between atoms: _71  and  _72
REMARK   28  A    between atoms: _78  and  _80
REMARK   29  A    between atoms: _80  and  _81
REMARK   30  A    between atoms: _80  and  _83
REMARK   31  A    between atoms: _83  and  _84
REMARK   32  A    between atoms: _84  and  _85
REMARK   33  A    between atoms: _85  and  _86
REMARK   34  A    between atoms: _95  and  _97
REMARK   35  A    between atoms: _97  and  _98
REMARK   36  A    between atoms: _97  and  _100
REMARK   37  A    between atoms: _100  and  _101
REMARK   38  A    between atoms: _101  and  _102
REMARK   39  A    between atoms: _104  and  _106
REMARK   40  A    between atoms: _106  and  _107
REMARK   41  A    between atoms: _106  and  _109
REMARK   42  A    between atoms: _109  and  _110
REMARK   43  A    between atoms: _114  and  _115
REMARK   44  A    between atoms: _120  and  _122
REMARK   45  A    between atoms: _122  and  _123
REMARK   46  A    between atoms: _122  and  _125
REMARK   47  A    between atoms: _125  and  _126
REMARK   48  A    between atoms: _131  and  _133
REMARK   49  A    between atoms: _133  and  _134
REMARK   50  A    between atoms: _133  and  _136
REMARK   51  A    between atoms: _136  and  _137
REMARK   52  A    between atoms: _140  and  _142
REMARK   53  A    between atoms: _142  and  _143
REMARK   54  A    between atoms: _146  and  _148
REMARK   55  A    between atoms: _148  and  _149
REMARK   56  A    between atoms: _148  and  _151
REMARK   57  A    between atoms: _151  and  _152
REMARK   58  A    between atoms: _155  and  _157
REMARK   59  A    between atoms: _157  and  _158
REMARK   60  A    between atoms: _157  and  _160
REMARK   61  A    between atoms: _160  and  _161
REMARK   62  A    between atoms: _164  and  _166
REMARK   63  A    between atoms: _166  and  _167
REMARK   64  A    between atoms: _166  and  _169
REMARK   65  A    between atoms: _172  and  _174
REMARK   66  A    between atoms: _174  and  _175
REMARK   67  A    between atoms: _174  and  _177
REMARK   68  A    between atoms: _177  and  _178
REMARK   69  A    between atoms: _180  and  _182
REMARK   70  A    between atoms: _182  and  _183
REMARK   71  A    between atoms: _182  and  _185
REMARK   72  A    between atoms: _185  and  _186
REMARK   73  A    between atoms: _191  and  _192
REMARK   74  A    between atoms: _194  and  _196
REMARK   75  A    between atoms: _196  and  _197
REMARK   76  A    between atoms: _196  and  _199
REMARK   77  A    between atoms: _199  and  _200
REMARK   78  A    between atoms: _202  and  _204
REMARK   79  A    between atoms: _204  and  _205
REMARK   80  A    between atoms: _204  and  _207
REMARK   81  A    between atoms: _207  and  _208
REMARK   82  A    between atoms: _211  and  _213
REMARK   83  A    between atoms: _213  and  _214
REMARK   84  A    between atoms: _213  and  _216
REMARK   85  A    between atoms: _216  and  _217
REMARK   86  A    between atoms: _217  and  _218
REMARK   87  A    between atoms: _218  and  _219
REMARK   88  A    between atoms: _219  and  _220
REMARK   89  A    between atoms: _224  and  _226
REMARK   90  A    between atoms: _226  and  _227
REMARK   91  A    between atoms: _226  and  _229
REMARK   92  A    between atoms: _232  and  _234
REMARK   93  A    between atoms: _234  and  _235
REMARK   94  A    between atoms: _238  and  _240
REMARK   95  A    between atoms: _240  and  _241
REMARK   96  A    between atoms: _240  and  _243
REMARK   97  A    between atoms: _243  and  _244
REMARK   98  A    between atoms: _247  and  _249
REMARK   99  A    between atoms: _249  and  _250
REMARK  100  A    between atoms: _249  and  _252
REMARK  101  A    between atoms: _252  and  _253
REMARK  102  A    between atoms: _253  and  _254
REMARK  103  A    between atoms: _257  and  _259
REMARK  104  A    between atoms: _259  and  _260
REMARK  105  A    between atoms: _259  and  _262
REMARK  106  A    between atoms: _265  and  _267
REMARK  107  A    between atoms: _267  and  _268
REMARK  108  A    between atoms: _267  and  _270
REMARK  109  A    between atoms: _270  and  _271
REMARK  110  A    between atoms: _274  and  _276
REMARK  111  A    between atoms: _276  and  _277
REMARK  112  A    between atoms: _276  and  _279
REMARK  113  A    between atoms: _279  and  _280
REMARK  114  A    between atoms: _280  and  _281
REMARK  115  A    between atoms: _283  and  _285
REMARK  116  A    between atoms: _285  and  _286
REMARK  117  A    between atoms: _285  and  _288
REMARK  118  A    between atoms: _288  and  _289
REMARK  119  A    between atoms: _292  and  _294
REMARK  120  A    between atoms: _294  and  _295
REMARK  121  A    between atoms: _294  and  _297
REMARK  122  A    between atoms: _297  and  _298
REMARK  123  A    between atoms: _298  and  _299
REMARK  124  A    between atoms: _299  and  _300
REMARK  125  A    between atoms: _309  and  _311
REMARK  126  A    between atoms: _311  and  _312
REMARK  127  A    between atoms: _311  and  _314
REMARK  128  A    between atoms: _314  and  _315
REMARK  129  A    between atoms: _317  and  _319
REMARK  130  A    between atoms: _319  and  _320
REMARK  131  A    between atoms: _319  and  _322
REMARK  132  A    between atoms: _322  and  _323
REMARK  133  A    between atoms: _328  and  _330
REMARK  134  A    between atoms: _330  and  _331
REMARK  135  A    between atoms: _330  and  _333
REMARK  136  A    between atoms: _333  and  _334
REMARK  137  A    between atoms: _334  and  _335
REMARK  138  A    between atoms: _340  and  _342
REMARK  139  A    between atoms: _342  and  _343
REMARK  140  A    between atoms: _342  and  _345
REMARK  141  A    between atoms: _345  and  _346
REMARK  142  A    between atoms: _348  and  _350
REMARK  143  A    between atoms: _350  and  _351
REMARK  144  A    between atoms: _350  and  _353
REMARK  145  A    between atoms: _353  and  _354
REMARK  146  A    between atoms: _360  and  _362
REMARK  147  A    between atoms: _362  and  _363
REMARK  148  A    between atoms: _362  and  _365
REMARK  149  A    between atoms: _365  and  _366
REMARK  150  A    between atoms: _368  and  _370
REMARK  151  A    between atoms: _370  and  _371
REMARK  152  A    between atoms: _370  and  _373
REMARK  153  A    between atoms: _373  and  _374
REMARK  154  A    between atoms: _384  and  _386
REMARK  155  A    between atoms: _386  and  _387
REMARK  156  A    between atoms: _386  and  _389
REMARK  157  A    between atoms: _389  and  _390
REMARK  158  A    between atoms: _393  and  _395
REMARK  159  A    between atoms: _395  and  _396
REMARK  160  A    between atoms: _395  and  _398
REMARK  161  A    between atoms: _400  and  _402
REMARK  162  A    between atoms: _402  and  _403
REMARK  163  A    between atoms: _402  and  _405
REMARK  164  A    between atoms: _405  and  _406
REMARK  165  A    between atoms: _411  and  _412
REMARK  166  A    between atoms: _414  and  _416
REMARK  167  A    between atoms: _416  and  _417
REMARK  168  A    between atoms: _416  and  _419
REMARK  169  A    between atoms: _419  and  _420
REMARK  170  A    between atoms: _420  and  _421
REMARK  171  A    between atoms: _421  and  _422
REMARK  172  A    between atoms: _422  and  _423
REMARK  173  A    between atoms: _427  and  _429
REMARK  174  A    between atoms: _429  and  _430
REMARK  175  A    between atoms: _429  and  _432
REMARK  176  A    between atoms: _432  and  _433
REMARK  177  A    between atoms: _438  and  _439
REMARK  178  A    between atoms: _441  and  _443
REMARK  179  A    between atoms: _443  and  _444
REMARK  180  A    between atoms: _443  and  _446
REMARK  181  A    between atoms: _446  and  _447
REMARK  182  A    between atoms: _450  and  _452
REMARK  183  A    between atoms: _452  and  _453
REMARK  184  A    between atoms: _452  and  _455
REMARK  185  A    between atoms: _458  and  _460
REMARK  186  A    between atoms: _460  and  _461
REMARK  187  A    between atoms: _460  and  _463
REMARK  188  A    between atoms: _463  and  _464
REMARK  189  A    between atoms: _467  and  _469
REMARK  190  A    between atoms: _469  and  _470
REMARK  191  A    between atoms: _469  and  _472
REMARK  192  A    between atoms: _475  and  _477
REMARK  193  A    between atoms: _477  and  _478
REMARK  194  A    between atoms: _477  and  _480
REMARK  195  A    between atoms: _480  and  _481
REMARK  196  A    between atoms: _483  and  _485
REMARK  197  A    between atoms: _485  and  _486
REMARK  198  A    between atoms: _485  and  _488
REMARK  199  A    between atoms: _488  and  _489
REMARK  200  A    between atoms: _489  and  _490
REMARK  201  A    between atoms: _490  and  _491
REMARK  202  A    between atoms: _491  and  _492
REMARK  203  A    between atoms: _496  and  _498
REMARK  204  A    between atoms: _498  and  _499
REMARK  205  A    between atoms: _502  and  _504
REMARK  206  A    between atoms: _504  and  _505
REMARK  207  A    between atoms: _507  and  _509
REMARK  208  A    between atoms: _509  and  _510
REMARK  209  A    between atoms: _509  and  _512
REMARK  210  A    between atoms: _512  and  _513
REMARK  211  A    between atoms: _518  and  _520
REMARK  212  A    between atoms: _520  and  _521
REMARK  213  A    between atoms: _520  and  _523
REMARK  214  A    between atoms: _523  and  _524
REMARK  215  A    between atoms: _527  and  _529
REMARK  216  A    between atoms: _529  and  _530
REMARK  217  A    between atoms: _529  and  _532
REMARK  218  A    between atoms: _532  and  _533
REMARK  219  A    between atoms: _536  and  _538
REMARK  220  A    between atoms: _538  and  _539
REMARK  221  A    between atoms: _538  and  _541
REMARK  222  A    between atoms: _541  and  _542
REMARK  223  A    between atoms: _545  and  _547
REMARK  224  A    between atoms: _547  and  _548
REMARK  225  A    between atoms: _547  and  _550
REMARK  226  A    between atoms: _550  and  _551
REMARK  227  A    between atoms: _554  and  _556
REMARK  228  A    between atoms: _556  and  _557
REMARK  229  A    between atoms: _556  and  _559
REMARK  230  A    between atoms: _559  and  _560
REMARK  231  A    between atoms: _560  and  _561
REMARK  232  A    between atoms: _566  and  _568
REMARK  233  A    between atoms: _568  and  _569
REMARK  234  A    between atoms: _568  and  _571
REMARK  235  A    between atoms: _571  and  _572
REMARK  236  A    between atoms: _577  and  _579
REMARK  237  A    between atoms: _579  and  _580
REMARK  238  A    between atoms: _579  and  _582
REMARK  239  A    between atoms: _582  and  _583
REMARK  240  A    between atoms: _585  and  _587
REMARK  241  A    between atoms: _587  and  _588
REMARK  242  A    between atoms: _587  and  _590
REMARK  243  A    between atoms: _590  and  _591
REMARK  244  A    between atoms: _591  and  _592
REMARK  245  A    between atoms: _597  and  _599
REMARK  246  A    between atoms: _599  and  _600
REMARK  247  A    between atoms: _599  and  _602
REMARK  248  A    between atoms: _602  and  _603
REMARK  249  A    between atoms: _608  and  _609
REMARK  250  A    between atoms: _611  and  _613
REMARK  251  A    between atoms: _613  and  _614
REMARK  252  A    between atoms: _613  and  _616
REMARK  253  A    between atoms: _616  and  _617
REMARK  254  A    between atoms: _617  and  _618
REMARK  255  A    between atoms: _618  and  _619
REMARK  256  A    between atoms: _628  and  _630
REMARK  257  A    between atoms: _630  and  _631
REMARK  258  A    between atoms: _630  and  _633
REMARK  259  A    between atoms: _633  and  _634
REMARK  260  A    between atoms: _637  and  _639
REMARK  261  A    between atoms: _639  and  _640
REMARK  262  A    between atoms: _639  and  _642
REMARK  263  A    between atoms: _642  and  _643
REMARK  264  A    between atoms: _645  and  _647
REMARK  265  A    between atoms: _647  and  _648
REMARK  266  A    between atoms: _647  and  _650
REMARK  267  A    between atoms: _650  and  _651
REMARK  268  A    between atoms: _656  and  _658
REMARK  269  A    between atoms: _658  and  _659
REMARK  270  A    between atoms: _658  and  _661
REMARK  271  A    between atoms: _661  and  _662
REMARK  272  A    between atoms: _662  and  _663
REMARK  273  A    between atoms: _663  and  _664
REMARK  274  A    between atoms: _664  and  _665
REMARK  275  A    between atoms: _669  and  _671
REMARK  276  A    between atoms: _671  and  _672
REMARK  277  A    between atoms: _671  and  _674
REMARK  278  A    between atoms: _674  and  _675
REMARK  279  A    between atoms: _678  and  _680
REMARK  280  A    between atoms: _680  and  _681
REMARK  281  A    between atoms: _680  and  _683
REMARK  282  A    between atoms: _683  and  _684
REMARK  283  A    between atoms: _687  and  _689
REMARK  284  A    between atoms: _689  and  _690
REMARK  285  A    between atoms: _689  and  _692
REMARK  286  A    between atoms: _695  and  _697
REMARK  287  A    between atoms: _697  and  _698
REMARK  288  A    between atoms: _697  and  _700
REMARK  289  A    between atoms: _700  and  _701
REMARK  290  A    between atoms: _704  and  _706
REMARK  291  A    between atoms: _706  and  _707
REMARK  292  A    between atoms: _706  and  _709
REMARK  293  A    between atoms: _709  and  _710
REMARK                            x       y       z     vdW  Elec       q    Type
REMARK                         _______ _______ _______ _____ _____    ______ ____
ROOT
ATOM      1  C   HIS A   1      61.098  -6.853  -9.337  0.00  0.00    +0.239 C 
ATOM      2  N   SER A   2      60.632  -7.999  -8.859  0.00  0.00    -0.296 N 
ATOM      3  H   SER A   2      59.636  -8.043  -8.563  0.00  0.00    +0.150 HD
ATOM      4  O   HIS A   1      62.270  -6.662  -9.636  0.00  0.00    -0.274 OA
ENDROOT
BRANCH   1   5
ATOM      5  CA  HIS A   1      60.077  -5.738  -9.439  0.00  0.00    +0.151 C 
BRANCH   5   6
ATOM      6  N   HIS A   1      58.863  -6.253 -10.042  0.00  0.00    -0.238 NA
ATOM      7  H   HIS A   1      57.968  -6.246  -9.512  0.00  0.00    +0.142 HD
ENDBRANCH   5   6
BRANCH   5   8
ATOM      8  CB  HIS A   1      59.892  -5.181  -8.030  0.00  0.00    +0.074 C 
BRANCH   8   9
ATOM      9  CG  HIS A   1      61.209  -4.856  -7.382  0.00  0.00    +0.082 A 
ATOM     10  ND1 HIS A   1      61.783  -5.647  -6.415  0.00  0.00    -0.227 NA
ATOM     11  CE1 HIS A   1      62.954  -5.139  -6.069  0.00  0.00    +0.199 A 
ATOM     12  NE2 HIS A   1      63.172  -4.058  -6.800  0.00  0.00    -0.221 NA
ATOM     13  CD2 HIS A   1      62.099  -3.869  -7.637  0.00  0.00    +0.115 A 
ENDBRANCH   8   9
ENDBRANCH   5   8
ENDBRANCH   1   5
BRANCH   2  14
ATOM     14  CA  SER A   2      61.451  -9.206  -8.728  0.00  0.00    +0.166 C 
BRANCH  14  15
ATOM     15  C   SER A   2      62.146  -9.561 -10.057  0.00  0.00    +0.229 C 
ATOM     16  O   SER A   2      63.358  -9.828 -10.084  0.00  0.00    -0.286 OA
ENDBRANCH  14  15
BRANCH  14  17
ATOM     17  CB  SER A   2      60.552 -10.365  -8.293  0.00  0.00    +0.165 C 
BRANCH  17  18
ATOM     18  OG  SER A   2      61.327 -11.412  -7.760  0.00  0.00    -0.380 OA
ATOM     19  H   SER A   2      61.831 -11.081  -6.975  0.00  0.00    +0.211 HD
ENDBRANCH  17  18
ENDBRANCH  14  17
ENDBRANCH   2  14
TORSDOF 8
REMARK  Name = ../refined-set-2016/2o4r/2o4r_pocket.pdb
REMARK  293 active torsions:
REMARK  status: ('A' for Active; 'I' for Inactive)
REMARK    1  A    between atoms: _1  and  _3
REMARK    2  A    between atoms: _3  and  _4
REMARK    3  A    between atoms: _3  and  _6
REMARK    4  A    between atoms: _6  and  _7
REMARK    5  A    between atoms: _10  and  _12
REMARK    6  A    between atoms: _12  and  _13
REMARK    7  A    between atoms: _12  and  _15
REMARK    8  A    between atoms: _15  and  _16
REMARK    9  A    between atoms: _21  and  _22
REMARK   10  A    between atoms: _24  and  _26
REMARK   11  A    between atoms: _26  and  _27
REMARK   12  A    between atoms: _26  and  _29
REMARK   13  A    between atoms: _29  and  _30
REMARK   14  A    between atoms: _34  and  _35
REMARK   15  A    between atoms: _40  and  _42
REMARK   16  A    between atoms: _42  and  _43
REMARK   17  A    between atoms: _42  and  _45
REMARK   18  A    between atoms: _45  and  _46
REMARK   19  A    between atoms: _51  and  _52
REMARK   20  A    between atoms: _54  and  _56
REMARK   21  A    between atoms: _56  and  _57
REMARK   22  A    between atoms: _56  and  _59
REMARK   23  A    between atoms: _59  and  _60
REMARK   24  A    between atoms: _66  and  _68
REMARK   25  A    between atoms: _68  and  _69
REMARK   26  A    between atoms: _68  and  _71
REMARK   27  A    between atoms: _71  and  _72
REMARK   28  A    between atoms: _78  and  _80
REMARK   29  A    between atoms: _80  and  _81
REMARK   30  A    between atoms: _80  and  _83
REMARK   31  A    between atoms: _83  and  _84
REMARK   32  A    between atoms: _84  and  _85
REMARK   33  A    between atoms: _85  and  _86
REMARK   34  A    between atoms: _95  and  _97
REMARK   35  A    between atoms: _97  and  _98
REMARK   36  A    between atoms: _97  and  _100
REMARK   37  A    between atoms: _100  and  _101
REMARK   38  A    between atoms: _101  and  _102
REMARK   39  A    between atoms: _104  and  _106
REMARK   40  A    between atoms: _106  and  _107
REMARK   41  A    between atoms: _106  and  _109
REMARK   42  A    between atoms: _109  and  _110
REMARK   43  A    between atoms: _114  and  _115
REMARK   44  A    between atoms: _120  and  _122
REMARK   45  A    between atoms: _122  and  _123
REMARK   46  A    between atoms: _122  and  _125
REMARK   47  A    between atoms: _125  and  _126
REMARK   48  A    between atoms: _131  and  _133
REMARK   49  A    between atoms: _133  and  _134
REMARK   50  A    between atoms: _133  and  _136
REMARK   51  A    between atoms: _136  and  _137
REMARK   52  A    between atoms: _140  and  _142
REMARK   53  A    between atoms: _142  and  _143
REMARK   54  A    between atoms: _146  and  _148
REMARK   55  A    between atoms: _148  and  _149
REMARK   56  A    between atoms: _148  and  _151
REMARK   57  A    between atoms: _151  and  _152
REMARK   58  A    between atoms: _155  and  _157
REMARK   59  A    between atoms: _157  and  _158
REMARK   60  A    between atoms: _157  and  _160
REMARK   61  A    between atoms: _160  and  _161
REMARK   62  A    between atoms: _164  and  _166
REMARK   63  A    between atoms: _166  and  _167
REMARK   64  A    between atoms: _166  and  _169
REMARK   65  A    between atoms: _172  and  _174
REMARK   66  A    between atoms: _174  and  _175
REMARK   67  A    between atoms: _174  and  _177
REMARK   68  A    between atoms: _177  and  _178
REMARK   69  A    between atoms: _180  and  _182
REMARK   70  A    between atoms: _182  and  _183
REMARK   71  A    between atoms: _182  and  _185
REMARK   72  A    between atoms: _185  and  _186
REMARK   73  A    between atoms: _191  and  _192
REMARK   74  A    between atoms: _194  and  _196
REMARK   75  A    between atoms: _196  and  _197
REMARK   76  A    between atoms: _196  and  _199
REMARK   77  A    between atoms: _199  and  _200
REMARK   78  A    between atoms: _202  and  _204
REMARK   79  A    between atoms: _204  and  _205
REMARK   80  A    between atoms: _204  and  _207
REMARK   81  A    between atoms: _207  and  _208
REMARK   82  A    between atoms: _211  and  _213
REMARK   83  A    between atoms: _213  and  _214
REMARK   84  A    between atoms: _213  and  _216
REMARK   85  A    between atoms: _216  and  _217
REMARK   86  A    between atoms: _217  and  _218
REMARK   87  A    between atoms: _218  and  _219
REMARK   88  A    between atoms: _219  and  _220
REMARK   89  A    between atoms: _224  and  _226
REMARK   90  A    between atoms: _226  and  _227
REMARK   91  A    between atoms: _226  and  _229
REMARK   92  A    between atoms: _232  and  _234
REMARK   93  A    between atoms: _234  and  _235
REMARK   94  A    between atoms: _238  and  _240
REMARK   95  A    between atoms: _240  and  _241
REMARK   96  A    between atoms: _240  and  _243
REMARK   97  A    between atoms: _243  and  _244
REMARK   98  A    between atoms: _247  and  _249
REMARK   99  A    between atoms: _249  and  _250
REMARK  100  A    between atoms: _249  and  _252
REMARK  101  A    between atoms: _252  and  _253
REMARK  102  A    between atoms: _253  and  _254
REMARK  103  A    between atoms: _257  and  _259
REMARK  104  A    between atoms: _259  and  _260
REMARK  105  A    between atoms: _259  and  _262
REMARK  106  A    between atoms: _265  and  _267
REMARK  107  A    between atoms: _267  and  _268
REMARK  108  A    between atoms: _267  and  _270
REMARK  109  A    between atoms: _270  and  _271
REMARK  110  A    between atoms: _274  and  _276
REMARK  111  A    between atoms: _276  and  _277
REMARK  112  A    between atoms: _276  and  _279
REMARK  113  A    between atoms: _279  and  _280
REMARK  114  A    between atoms: _280  and  _281
REMARK  115  A    between atoms: _283  and  _285
REMARK  116  A    between atoms: _285  and  _286
REMARK  117  A    between atoms: _285  and  _288
REMARK  118  A    between atoms: _288  and  _289
REMARK  119  A    between atoms: _292  and  _294
REMARK  120  A    between atoms: _294  and  _295
REMARK  121  A    between atoms: _294  and  _297
REMARK  122  A    between atoms: _297  and  _298
REMARK  123  A    between atoms: _298  and  _299
REMARK  124  A    between atoms: _299  and  _300
REMARK  125  A    between atoms: _309  and  _311
REMARK  126  A    between atoms: _311  and  _312
REMARK  127  A    between atoms: _311  and  _314
REMARK  128  A    between atoms: _314  and  _315
REMARK  129  A    between atoms: _317  and  _319
REMARK  130  A    between atoms: _319  and  _320
REMARK  131  A    between atoms: _319  and  _322
REMARK  132  A    between atoms: _322  and  _323
REMARK  133  A    between atoms: _328  and  _330
REMARK  134  A    between atoms: _330  and  _331
REMARK  135  A    between atoms: _330  and  _333
REMARK  136  A    between atoms: _333  and  _334
REMARK  137  A    between atoms: _334  and  _335
REMARK  138  A    between atoms: _340  and  _342
REMARK  139  A    between atoms: _342  and  _343
REMARK  140  A    between atoms: _342  and  _345
REMARK  141  A    between atoms: _345  and  _346
REMARK  142  A    between atoms: _348  and  _350
REMARK  143  A    between atoms: _350  and  _351
REMARK  144  A    between atoms: _350  and  _353
REMARK  145  A    between atoms: _353  and  _354
REMARK  146  A    between atoms: _360  and  _362
REMARK  147  A    between atoms: _362  and  _363
REMARK  148  A    between atoms: _362  and  _365
REMARK  149  A    between atoms: _365  and  _366
REMARK  150  A    between atoms: _368  and  _370
REMARK  151  A    between atoms: _370  and  _371
REMARK  152  A    between atoms: _370  and  _373
REMARK  153  A    between atoms: _373  and  _374
REMARK  154  A    between atoms: _384  and  _386
REMARK  155  A    between atoms: _386  and  _387
REMARK  156  A    between atoms: _386  and  _389
REMARK  157  A    between atoms: _389  and  _390
REMARK  158  A    between atoms: _393  and  _395
REMARK  159  A    between atoms: _395  and  _396
REMARK  160  A    between atoms: _395  and  _398
REMARK  161  A    between atoms: _400  and  _402
REMARK  162  A    between atoms: _402  and  _403
REMARK  163  A    between atoms: _402  and  _405
REMARK  164  A    between atoms: _405  and  _406
REMARK  165  A    between atoms: _411  and  _412
REMARK  166  A    between atoms: _414  and  _416
REMARK  167  A    between atoms: _416  and  _417
REMARK  168  A    between atoms: _416  and  _419
REMARK  169  A    between atoms: _419  and  _420
REMARK  170  A    between atoms: _420  and  _421
REMARK  171  A    between atoms: _421  and  _422
REMARK  172  A    between atoms: _422  and  _423
REMARK  173  A    between atoms: _427  and  _429
REMARK  174  A    between atoms: _429  and  _430
REMARK  175  A    between atoms: _429  and  _432
REMARK  176  A    between atoms: _432  and  _433
REMARK  177  A    between atoms: _438  and  _439
REMARK  178  A    between atoms: _441  and  _443
REMARK  179  A    between atoms: _443  and  _444
REMARK  180  A    between atoms: _443  and  _446
REMARK  181  A    between atoms: _446  and  _447
REMARK  182  A    between atoms: _450  and  _452
REMARK  183  A    between atoms: _452  and  _453
REMARK  184  A    between atoms: _452  and  _455
REMARK  185  A    between atoms: _458  and  _460
REMARK  186  A    between atoms: _460  and  _461
REMARK  187  A    between atoms: _460  and  _463
REMARK  188  A    between atoms: _463  and  _464
REMARK  189  A    between atoms: _467  and  _469
REMARK  190  A    between atoms: _469  and  _470
REMARK  191  A    between atoms: _469  and  _472
REMARK  192  A    between atoms: _475  and  _477
REMARK  193  A    between atoms: _477  and  _478
REMARK  194  A    between atoms: _477  and  _480
REMARK  195  A    between atoms: _480  and  _481
REMARK  196  A    between atoms: _483  and  _485
REMARK  197  A    between atoms: _485  and  _486
REMARK  198  A    between atoms: _485  and  _488
REMARK  199  A    between atoms: _488  and  _489
REMARK  200  A    between atoms: _489  and  _490
REMARK  201  A    between atoms: _490  and  _491
REMARK  202  A    between atoms: _491  and  _492
REMARK  203  A    between atoms: _496  and  _498
REMARK  204  A    between atoms: _498  and  _499
REMARK  205  A    between atoms: _502  and  _504
REMARK  206  A    between atoms: _504  and  _505
REMARK  207  A    between atoms: _507  and  _509
REMARK  208  A    between atoms: _509  and  _510
REMARK  209  A    between atoms: _509  and  _512
REMARK  210  A    between atoms: _512  and  _513
REMARK  211  A    between atoms: _518  and  _520
REMARK  212  A    between atoms: _520  and  _521
REMARK  213  A    between atoms: _520  and  _523
REMARK  214  A    between atoms: _523  and  _524
REMARK  215  A    between atoms: _527  and  _529
REMARK  216  A    between atoms: _529  and  _530
REMARK  217  A    between atoms: _529  and  _532
REMARK  218  A    between atoms: _532  and  _533
REMARK  219  A    between atoms: _536  and  _538
REMARK  220  A    between atoms: _538  and  _539
REMARK  221  A    between atoms: _538  and  _541
REMARK  222  A    between atoms: _541  and  _542
REMARK  223  A    between atoms: _545  and  _547
REMARK  224  A    between atoms: _547  and  _548
REMARK  225  A    between atoms: _547  and  _550
REMARK  226  A    between atoms: _550  and  _551
REMARK  227  A    between atoms: _554  and  _556
REMARK  228  A    between atoms: _556  and  _557
REMARK  229  A    between atoms: _556  and  _559
REMARK  230  A    between atoms: _559  and  _560
REMARK  231  A    between atoms: _560  and  _561
REMARK  232  A    between atoms: _566  and  _568
REMARK  233  A    between atoms: _568  and  _569
REMARK  234  A    between atoms: _568  and  _571
REMARK  235  A    between atoms: _571  and  _572
REMARK  236  A    between atoms: _577  and  _579
REMARK  237  A    between atoms: _579  and  _580
REMARK  238  A    between atoms: _579  and  _582
REMARK  239  A    between atoms: _582  and  _583
REMARK  240  A    between atoms: _585  and  _587
REMARK  241  A    between atoms: _587  and  _588
REMARK  242  A    between atoms: _587  and  _590
REMARK  243  A    between atoms: _590  and  _591
REMARK  244  A    between atoms: _591  and  _592
REMARK  245  A    between atoms: _597  and  _599
REMARK  246  A    between atoms: _599  and  _600
REMARK  247  A    between atoms: _599  and  _602
REMARK  248  A    between atoms: _602  and  _603
REMARK  249  A    between atoms: _608  and  _609
REMARK  250  A    between atoms: _611  and  _613
REMARK  251  A    between atoms: _613  and  _614
REMARK  252  A    between atoms: _613  and  _616
REMARK  253  A    between atoms: _616  and  _617
REMARK  254  A    between atoms: _617  and  _618
REMARK  255  A    between atoms: _618  and  _619
REMARK  256  A    between atoms: _628  and  _630
REMARK  257  A    between atoms: _630  and  _631
REMARK  258  A    between atoms: _630  and  _633
REMARK  259  A    between atoms: _633  and  _634
REMARK  260  A    between atoms: _637  and  _639
REMARK  261  A    between atoms: _639  and  _640
REMARK  262  A    between atoms: _639  and  _642
REMARK  263  A    between atoms: _642  and  _643
REMARK  264  A    between atoms: _645  and  _647
REMARK  265  A    between atoms: _647  and  _648
REMARK  266  A    between atoms: _647  and  _650
REMARK  267  A    between atoms: _650  and  _651
REMARK  268  A    between atoms: _656  and  _658
REMARK  269  A    between atoms: _658  and  _659
REMARK  270  A    between atoms: _658  and  _661
REMARK  271  A    between atoms: _661  and  _662
REMARK  272  A    between atoms: _662  and  _663
REMARK  273  A    between atoms: _663  and  _664
REMARK  274  A    between atoms: _664  and  _665
REMARK  275  A    between atoms: _669  and  _671
REMARK  276  A    between atoms: _671  and  _672
REMARK  277  A    between atoms: _671  and  _674
REMARK  278  A    between atoms: _674  and  _675
REMARK  279  A    between atoms: _678  and  _680
REMARK  280  A    between atoms: _680  and  _681
REMARK  281  A    between atoms: _680  and  _683
REMARK  282  A    between atoms: _683  and  _684
REMARK  283  A    between atoms: _687  and  _689
REMARK  284  A    between atoms: _689  and  _690
REMARK  285  A    between atoms: _689  and  _692
REMARK  286  A    between atoms: _695  and  _697
REMARK  287  A    between atoms: _697  and  _698
REMARK  288  A    between atoms: _697  and  _700
REMARK  289  A    between atoms: _700  and  _701
REMARK  290  A    between atoms: _704  and  _706
REMARK  291  A    between atoms: _706  and  _707
REMARK  292  A    between atoms: _706  and  _709
REMARK  293  A    between atoms: _709  and  _710
REMARK                            x       y       z     vdW  Elec       q    Type
REMARK                         _______ _______ _______ _____ _____    ______ ____
ROOT
ATOM      1  CA  TYR A   2      65.826  -6.812  -9.991  0.00  0.00    +0.153 C 
ENDROOT
BRANCH   1   3
ATOM      2  C   GLN A   1      64.918  -6.527 -12.257  0.00  0.00    +0.238 C 
ATOM      3  N   TYR A   2      64.722  -6.757 -10.957  0.00  0.00    -0.297 N 
ATOM      4  H   TYR A   2      63.751  -6.903 -10.616  0.00  0.00    +0.150 HD
ATOM      5  O   GLN A   1      66.030  -6.316 -12.752  0.00  0.00    -0.274 OA
BRANCH   2   6
ATOM      6  CA  GLN A   1      63.667  -6.552 -13.162  0.00  0.00    +0.145 C 
BRANCH   6   7
ATOM      7  N   GLN A   1      62.702  -7.587 -12.771  0.00  0.00    -0.238 NA
ATOM      8  H   GLN A   1      61.779  -7.301 -12.387  0.00  0.00    +0.142 HD
ENDBRANCH   6   7
BRANCH   6   9
ATOM      9  CB  GLN A   1      63.029  -5.152 -13.263  0.00  0.00    +0.036 C 
BRANCH   9  10
ATOM     10  CG  GLN A   1      61.772  -5.103 -14.178  0.00  0.00    +0.087 C 
BRANCH  10  11
ATOM     11  CD  GLN A   1      61.415  -3.730 -14.646  0.00  0.00    +0.219 C 
ATOM     12  OE1 GLN A   1      62.054  -2.733 -14.286  0.00  0.00    -0.275 OA
ATOM     13  NE2 GLN A   1      60.376  -3.651 -15.470  0.00  0.00    -0.329 N 
ATOM     14 HE21 GLN A   1      59.866  -4.514 -15.748  0.00  0.00    +0.145 HD
ATOM     15 HE22 GLN A   1      60.073  -2.726 -15.837  0.00  0.00    +0.145 HD
ENDBRANCH  10  11
ENDBRANCH   9  10
ENDBRANCH   6   9
ENDBRANCH   2   6
ENDBRANCH   1   3
BRANCH   1  16
ATOM     16  C   TYR A   2      66.752  -7.999 -10.297  0.00  0.00    +0.241 C 
ATOM     17  O   TYR A   2      67.958  -7.846 -10.247  0.00  0.00    -0.273 OA
ATOM     18  N   ARG A   3      66.175  -9.166 -10.568  0.00  0.00    -0.298 N 
ATOM     19  H   ARG A   3      65.139  -9.232 -10.498  0.00  0.00    +0.150 HD
BRANCH  18  20
ATOM     20  CA  ARG A   3      66.928 -10.374 -10.964  0.00  0.00    +0.137 C 
BRANCH  20  21
ATOM     21  C   ARG A   3      67.855 -10.035 -12.138  0.00  0.00    +0.227 C 
ATOM     22  O   ARG A   3      69.054 -10.324 -12.108  0.00  0.00    -0.286 OA
ENDBRANCH  20  21
BRANCH  20  23
ATOM     23  CB  ARG A   3      65.933 -11.493 -11.311  0.00  0.00    +0.031 C 
BRANCH  23  24
ATOM     24  CG  ARG A   3      66.490 -12.899 -11.596  0.00  0.00    +0.045 C 
BRANCH  24  25
ATOM     25  CD  ARG A   3      65.366 -13.972 -11.757  0.00  0.00    +0.174 C 
BRANCH  25  26
ATOM     26  NE  ARG A   3      64.163 -13.713 -10.936  0.00  0.00    -0.265 N 
ATOM     27  HE  ARG A   3      64.300 -13.584  -9.913  0.00  0.00    +0.259 HD
ATOM     28  CZ  ARG A   3      62.912 -13.631 -11.406  0.00  0.00    +0.342 C 
ATOM     29  NH2 ARG A   3      61.896 -13.378 -10.573  0.00  0.00    -0.292 N 
ATOM     30 HH21 ARG A   3      62.077 -13.244  -9.558  0.00  0.00    +0.255 HD
ATOM     31 HH22 ARG A   3      60.925 -13.315 -10.941  0.00  0.00    +0.255 HD
ATOM     32  NH1 ARG A   3      62.659 -13.816 -12.704  0.00  0.00    -0.292 N 
ATOM     33 HH11 ARG A   3      61.683 -13.750 -13.058  0.00  0.00    +0.255 HD
ATOM     34 HH12 ARG A   3      63.438 -14.026 -13.361  0.00  0.00    +0.255 HD
ENDBRANCH  25  26
ENDBRANCH  24  25
ENDBRANCH  23  24
ENDBRANCH  20  23
ENDBRANCH  18  20
ENDBRANCH   1  16
BRANCH   1  35
ATOM     35  CB  TYR A   2      65.332  -6.929  -8.539  0.00  0.00    +0.055 C 
BRANCH  35  36
ATOM     36  CG  TYR A   2      66.487  -7.111  -7.559  0.00  0.00    -0.020 A 
ATOM     37  CD2 TYR A   2      67.119  -6.005  -7.001  0.00  0.00    -0.001 A 
ATOM     38  CE2 TYR A   2      68.199  -6.147  -6.123  0.00  0.00    +0.036 A 
ATOM     39  CZ  TYR A   2      68.663  -7.408  -5.817  0.00  0.00    +0.134 A 
ATOM     40  CE1 TYR A   2      68.069  -8.546  -6.365  0.00  0.00    +0.036 A 
ATOM     41  CD1 TYR A   2      66.973  -8.383  -7.243  0.00  0.00    -0.001 A 
BRANCH  39  42
ATOM     42  OH  TYR A   2      69.723  -7.521  -4.960  0.00  0.00    -0.506 OA
ATOM     43  HH  TYR A   2      69.451  -8.048  -4.168  0.00  0.00    +0.292 HD
ENDBRANCH  39  42
ENDBRANCH  35  36
ENDBRANCH   1  35
TORSDOF 16
REMARK  Name = ../refined-set-2016/2o4r/2o4r_pocket.pdb
REMARK  293 active torsions:
REMARK  status: ('A' for Active; 'I' for Inactive)
REMARK    1  A    between atoms: _1  and  _3
REMARK    2  A    between atoms: _3  and  _4
REMARK    3  A    between atoms: _3  and  _6
REMARK    4  A    between atoms: _6  and  _7
REMARK    5  A    between atoms: _10  and  _12
REMARK    6  A    between atoms: _12  and  _13
REMARK    7  A    between atoms: _12  and  _15
REMARK    8  A    between atoms: _15  and  _16
REMARK    9  A    between atoms: _21  and  _22
REMARK   10  A    between atoms: _24  and  _26
REMARK   11  A    between atoms: _26  and  _27
REMARK   12  A    between atoms: _26  and  _29
REMARK   13  A    between atoms: _29  and  _30
REMARK   14  A    between atoms: _34  and  _35
REMARK   15  A    between atoms: _40  and  _42
REMARK   16  A    between atoms: _42  and  _43
REMARK   17  A    between atoms: _42  and  _45
REMARK   18  A    between atoms: _45  and  _46
REMARK   19  A    between atoms: _51  and  _52
REMARK   20  A    between atoms: _54  and  _56
REMARK   21  A    between atoms: _56  and  _57
REMARK   22  A    between atoms: _56  and  _59
REMARK   23  A    between atoms: _59  and  _60
REMARK   24  A    between atoms: _66  and  _68
REMARK   25  A    between atoms: _68  and  _69
REMARK   26  A    between atoms: _68  and  _71
REMARK   27  A    between atoms: _71  and  _72
REMARK   28  A    between atoms: _78  and  _80
REMARK   29  A    between atoms: _80  and  _81
REMARK   30  A    between atoms: _80  and  _83
REMARK   31  A    between atoms: _83  and  _84
REMARK   32  A    between atoms: _84  and  _85
REMARK   33  A    between atoms: _85  and  _86
REMARK   34  A    between atoms: _95  and  _97
REMARK   35  A    between atoms: _97  and  _98
REMARK   36  A    between atoms: _97  and  _100
REMARK   37  A    between atoms: _100  and  _101
REMARK   38  A    between atoms: _101  and  _102
REMARK   39  A    between atoms: _104  and  _106
REMARK   40  A    between atoms: _106  and  _107
REMARK   41  A    between atoms: _106  and  _109
REMARK   42  A    between atoms: _109  and  _110
REMARK   43  A    between atoms: _114  and  _115
REMARK   44  A    between atoms: _120  and  _122
REMARK   45  A    between atoms: _122  and  _123
REMARK   46  A    between atoms: _122  and  _125
REMARK   47  A    between atoms: _125  and  _126
REMARK   48  A    between atoms: _131  and  _133
REMARK   49  A    between atoms: _133  and  _134
REMARK   50  A    between atoms: _133  and  _136
REMARK   51  A    between atoms: _136  and  _137
REMARK   52  A    between atoms: _140  and  _142
REMARK   53  A    between atoms: _142  and  _143
REMARK   54  A    between atoms: _146  and  _148
REMARK   55  A    between atoms: _148  and  _149
REMARK   56  A    between atoms: _148  and  _151
REMARK   57  A    between atoms: _151  and  _152
REMARK   58  A    between atoms: _155  and  _157
REMARK   59  A    between atoms: _157  and  _158
REMARK   60  A    between atoms: _157  and  _160
REMARK   61  A    between atoms: _160  and  _161
REMARK   62  A    between atoms: _164  and  _166
REMARK   63  A    between atoms: _166  and  _167
REMARK   64  A    between atoms: _166  and  _169
REMARK   65  A    between atoms: _172  and  _174
REMARK   66  A    between atoms: _174  and  _175
REMARK   67  A    between atoms: _174  and  _177
REMARK   68  A    between atoms: _177  and  _178
REMARK   69  A    between atoms: _180  and  _182
REMARK   70  A    between atoms: _182  and  _183
REMARK   71  A    between atoms: _182  and  _185
REMARK   72  A    between atoms: _185  and  _186
REMARK   73  A    between atoms: _191  and  _192
REMARK   74  A    between atoms: _194  and  _196
REMARK   75  A    between atoms: _196  and  _197
REMARK   76  A    between atoms: _196  and  _199
REMARK   77  A    between atoms: _199  and  _200
REMARK   78  A    between atoms: _202  and  _204
REMARK   79  A    between atoms: _204  and  _205
REMARK   80  A    between atoms: _204  and  _207
REMARK   81  A    between atoms: _207  and  _208
REMARK   82  A    between atoms: _211  and  _213
REMARK   83  A    between atoms: _213  and  _214
REMARK   84  A    between atoms: _213  and  _216
REMARK   85  A    between atoms: _216  and  _217
REMARK   86  A    between atoms: _217  and  _218
REMARK   87  A    between atoms: _218  and  _219
REMARK   88  A    between atoms: _219  and  _220
REMARK   89  A    between atoms: _224  and  _226
REMARK   90  A    between atoms: _226  and  _227
REMARK   91  A    between atoms: _226  and  _229
REMARK   92  A    between atoms: _232  and  _234
REMARK   93  A    between atoms: _234  and  _235
REMARK   94  A    between atoms: _238  and  _240
REMARK   95  A    between atoms: _240  and  _241
REMARK   96  A    between atoms: _240  and  _243
REMARK   97  A    between atoms: _243  and  _244
REMARK   98  A    between atoms: _247  and  _249
REMARK   99  A    between atoms: _249  and  _250
REMARK  100  A    between atoms: _249  and  _252
REMARK  101  A    between atoms: _252  and  _253
REMARK  102  A    between atoms: _253  and  _254
REMARK  103  A    between atoms: _257  and  _259
REMARK  104  A    between atoms: _259  and  _260
REMARK  105  A    between atoms: _259  and  _262
REMARK  106  A    between atoms: _265  and  _267
REMARK  107  A    between atoms: _267  and  _268
REMARK  108  A    between atoms: _267  and  _270
REMARK  109  A    between atoms: _270  and  _271
REMARK  110  A    between atoms: _274  and  _276
REMARK  111  A    between atoms: _276  and  _277
REMARK  112  A    between atoms: _276  and  _279
REMARK  113  A    between atoms: _279  and  _280
REMARK  114  A    between atoms: _280  and  _281
REMARK  115  A    between atoms: _283  and  _285
REMARK  116  A    between atoms: _285  and  _286
REMARK  117  A    between atoms: _285  and  _288
REMARK  118  A    between atoms: _288  and  _289
REMARK  119  A    between atoms: _292  and  _294
REMARK  120  A    between atoms: _294  and  _295
REMARK  121  A    between atoms: _294  and  _297
REMARK  122  A    between atoms: _297  and  _298
REMARK  123  A    between atoms: _298  and  _299
REMARK  124  A    between atoms: _299  and  _300
REMARK  125  A    between atoms: _309  and  _311
REMARK  126  A    between atoms: _311  and  _312
REMARK  127  A    between atoms: _311  and  _314
REMARK  128  A    between atoms: _314  and  _315
REMARK  129  A    between atoms: _317  and  _319
REMARK  130  A    between atoms: _319  and  _320
REMARK  131  A    between atoms: _319  and  _322
REMARK  132  A    between atoms: _322  and  _323
REMARK  133  A    between atoms: _328  and  _330
REMARK  134  A    between atoms: _330  and  _331
REMARK  135  A    between atoms: _330  and  _333
REMARK  136  A    between atoms: _333  and  _334
REMARK  137  A    between atoms: _334  and  _335
REMARK  138  A    between atoms: _340  and  _342
REMARK  139  A    between atoms: _342  and  _343
REMARK  140  A    between atoms: _342  and  _345
REMARK  141  A    between atoms: _345  and  _346
REMARK  142  A    between atoms: _348  and  _350
REMARK  143  A    between atoms: _350  and  _351
REMARK  144  A    between atoms: _350  and  _353
REMARK  145  A    between atoms: _353  and  _354
REMARK  146  A    between atoms: _360  and  _362
REMARK  147  A    between atoms: _362  and  _363
REMARK  148  A    between atoms: _362  and  _365
REMARK  149  A    between atoms: _365  and  _366
REMARK  150  A    between atoms: _368  and  _370
REMARK  151  A    between atoms: _370  and  _371
REMARK  152  A    between atoms: _370  and  _373
REMARK  153  A    between atoms: _373  and  _374
REMARK  154  A    between atoms: _384  and  _386
REMARK  155  A    between atoms: _386  and  _387
REMARK  156  A    between atoms: _386  and  _389
REMARK  157  A    between atoms: _389  and  _390
REMARK  158  A    between atoms: _393  and  _395
REMARK  159  A    between atoms: _395  and  _396
REMARK  160  A    between atoms: _395  and  _398
REMARK  161  A    between atoms: _400  and  _402
REMARK  162  A    between atoms: _402  and  _403
REMARK  163  A    between atoms: _402  and  _405
REMARK  164  A    between atoms: _405  and  _406
REMARK  165  A    between atoms: _411  and  _412
REMARK  166  A    between atoms: _414  and  _416
REMARK  167  A    between atoms: _416  and  _417
REMARK  168  A    between atoms: _416  and  _419
REMARK  169  A    between atoms: _419  and  _420
REMARK  170  A    between atoms: _420  and  _421
REMARK  171  A    between atoms: _421  and  _422
REMARK  172  A    between atoms: _422  and  _423
REMARK  173  A    between atoms: _427  and  _429
REMARK  174  A    between atoms: _429  and  _430
REMARK  175  A    between atoms: _429  and  _432
REMARK  176  A    between atoms: _432  and  _433
REMARK  177  A    between atoms: _438  and  _439
REMARK  178  A    between atoms: _441  and  _443
REMARK  179  A    between atoms: _443  and  _444
REMARK  180  A    between atoms: _443  and  _446
REMARK  181  A    between atoms: _446  and  _447
REMARK  182  A    between atoms: _450  and  _452
REMARK  183  A    between atoms: _452  and  _453
REMARK  184  A    between atoms: _452  and  _455
REMARK  185  A    between atoms: _458  and  _460
REMARK  186  A    between atoms: _460  and  _461
REMARK  187  A    between atoms: _460  and  _463
REMARK  188  A    between atoms: _463  and  _464
REMARK  189  A    between atoms: _467  and  _469
REMARK  190  A    between atoms: _469  and  _470
REMARK  191  A    between atoms: _469  and  _472
REMARK  192  A    between atoms: _475  and  _477
REMARK  193  A    between atoms: _477  and  _478
REMARK  194  A    between atoms: _477  and  _480
REMARK  195  A    between atoms: _480  and  _481
REMARK  196  A    between atoms: _483  and  _485
REMARK  197  A    between atoms: _485  and  _486
REMARK  198  A    between atoms: _485  and  _488
REMARK  199  A    between atoms: _488  and  _489
REMARK  200  A    between atoms: _489  and  _490
REMARK  201  A    between atoms: _490  and  _491
REMARK  202  A    between atoms: _491  and  _492
REMARK  203  A    between atoms: _496  and  _498
REMARK  204  A    between atoms: _498  and  _499
REMARK  205  A    between atoms: _502  and  _504
REMARK  206  A    between atoms: _504  and  _505
REMARK  207  A    between atoms: _507  and  _509
REMARK  208  A    between atoms: _509  and  _510
REMARK  209  A    between atoms: _509  and  _512
REMARK  210  A    between atoms: _512  and  _513
REMARK  211  A    between atoms: _518  and  _520
REMARK  212  A    between atoms: _520  and  _521
REMARK  213  A    between atoms: _520  and  _523
REMARK  214  A    between atoms: _523  and  _524
REMARK  215  A    between atoms: _527  and  _529
REMARK  216  A    between atoms: _529  and  _530
REMARK  217  A    between atoms: _529  and  _532
REMARK  218  A    between atoms: _532  and  _533
REMARK  219  A    between atoms: _536  and  _538
REMARK  220  A    between atoms: _538  and  _539
REMARK  221  A    between atoms: _538  and  _541
REMARK  222  A    between atoms: _541  and  _542
REMARK  223  A    between atoms: _545  and  _547
REMARK  224  A    between atoms: _547  and  _548
REMARK  225  A    between atoms: _547  and  _550
REMARK  226  A    between atoms: _550  and  _551
REMARK  227  A    between atoms: _554  and  _556
REMARK  228  A    between atoms: _556  and  _557
REMARK  229  A    between atoms: _556  and  _559
REMARK  230  A    between atoms: _559  and  _560
REMARK  231  A    between atoms: _560  and  _561
REMARK  232  A    between atoms: _566  and  _568
REMARK  233  A    between atoms: _568  and  _569
REMARK  234  A    between atoms: _568  and  _571
REMARK  235  A    between atoms: _571  and  _572
REMARK  236  A    between atoms: _577  and  _579
REMARK  237  A    between atoms: _579  and  _580
REMARK  238  A    between atoms: _579  and  _582
REMARK  239  A    between atoms: _582  and  _583
REMARK  240  A    between atoms: _585  and  _587
REMARK  241  A    between atoms: _587  and  _588
REMARK  242  A    between atoms: _587  and  _590
REMARK  243  A    between atoms: _590  and  _591
REMARK  244  A    between atoms: _591  and  _592
REMARK  245  A    between atoms: _597  and  _599
REMARK  246  A    between atoms: _599  and  _600
REMARK  247  A    between atoms: _599  and  _602
REMARK  248  A    between atoms: _602  and  _603
REMARK  249  A    between atoms: _608  and  _609
REMARK  250  A    between atoms: _611  and  _613
REMARK  251  A    between atoms: _613  and  _614
REMARK  252  A    between atoms: _613  and  _616
REMARK  253  A    between atoms: _616  and  _617
REMARK  254  A    between atoms: _617  and  _618
REMARK  255  A    between atoms: _618  and  _619
REMARK  256  A    between atoms: _628  and  _630
REMARK  257  A    between atoms: _630  and  _631
REMARK  258  A    between atoms: _630  and  _633
REMARK  259  A    between atoms: _633  and  _634
REMARK  260  A    between atoms: _637  and  _639
REMARK  261  A    between atoms: _639  and  _640
REMARK  262  A    between atoms: _639  and  _642
REMARK  263  A    between atoms: _642  and  _643
REMARK  264  A    between atoms: _645  and  _647
REMARK  265  A    between atoms: _647  and  _648
REMARK  266  A    between atoms: _647  and  _650
REMARK  267  A    between atoms: _650  and  _651
REMARK  268  A    between atoms: _656  and  _658
REMARK  269  A    between atoms: _658  and  _659
REMARK  270  A    between atoms: _658  and  _661
REMARK  271  A    between atoms: _661  and  _662
REMARK  272  A    between atoms: _662  and  _663
REMARK  273  A    between atoms: _663  and  _664
REMARK  274  A    between atoms: _664  and  _665
REMARK  275  A    between atoms: _669  and  _671
REMARK  276  A    between atoms: _671  and  _672
REMARK  277  A    between atoms: _671  and  _674
REMARK  278  A    between atoms: _674  and  _675
REMARK  279  A    between atoms: _678  and  _680
REMARK  280  A    between atoms: _680  and  _681
REMARK  281  A    between atoms: _680  and  _683
REMARK  282  A    between atoms: _683  and  _684
REMARK  283  A    between atoms: _687  and  _689
REMARK  284  A    between atoms: _689  and  _690
REMARK  285  A    between atoms: _689  and  _692
REMARK  286  A    between atoms: _695  and  _697
REMARK  287  A    between atoms: _697  and  _698
REMARK  288  A    between atoms: _697  and  _700
REMARK  289  A    between atoms: _700  and  _701
REMARK  290  A    between atoms: _704  and  _706
REMARK  291  A    between atoms: _706  and  _707
REMARK  292  A    between atoms: _706  and  _709
REMARK  293  A    between atoms: _709  and  _710
REMARK                            x       y       z     vdW  Elec       q    Type
REMARK                         _______ _______ _______ _____ _____    ______ ____
ROOT
ATOM      1  C   LEU A   1      70.835  -6.392 -12.081  0.00  0.00    +0.238 C 
ATOM      2  N   SER A   2      70.538  -7.175 -11.041  0.00  0.00    -0.296 N 
ATOM      3  H   SER A   2      69.546  -7.443 -10.881  0.00  0.00    +0.150 HD
ATOM      4  O   LEU A   1      71.991  -6.159 -12.432  0.00  0.00    -0.274 OA
ENDROOT
BRANCH   1   5
ATOM      5  CA  LEU A   1      69.653  -5.803 -12.873  0.00  0.00    +0.145 C 
BRANCH   5   6
ATOM      6  N   LEU A   1      68.745  -6.852 -13.319  0.00  0.00    -0.238 NA
ATOM      7  H   LEU A   1      67.753  -6.803 -13.012  0.00  0.00    +0.142 HD
ENDBRANCH   5   6
BRANCH   5   8
ATOM      8  CB  LEU A   1      68.856  -4.842 -11.993  0.00  0.00    +0.026 C 
BRANCH   8   9
ATOM      9  CG  LEU A   1      69.236  -3.468 -11.465  0.00  0.00    +0.002 C 
ATOM     10  CD2 LEU A   1      70.199  -3.539 -10.297  0.00  0.00    +0.000 C 
ATOM     11  CD1 LEU A   1      67.931  -2.839 -11.004  0.00  0.00    +0.000 C 
ENDBRANCH   8   9
ENDBRANCH   5   8
ENDBRANCH   1   5
BRANCH   2  12
ATOM     12  CA  SER A   2      71.567  -7.672 -10.113  0.00  0.00    +0.166 C 
BRANCH  12  13
ATOM     13  CB  SER A   2      72.445  -8.764 -10.717  0.00  0.00    +0.229 C 
ATOM     14  OG  SER A   2      73.517  -9.084 -10.200  0.00  0.00    -0.286 OA
ENDBRANCH  12  13
BRANCH  12  15
ATOM     15  C   SER A   2      70.932  -8.189  -8.828  0.00  0.00    +0.165 C 
BRANCH  15  16
ATOM     16  O   SER A   2      70.125  -9.331  -9.065  0.00  0.00    -0.380 OA
ATOM     17  H   SER A   2      69.401  -9.097  -9.699  0.00  0.00    +0.211 HD
ENDBRANCH  15  16
ENDBRANCH  12  15
ENDBRANCH   2  12
TORSDOF 8
REMARK  Name = ../refined-set-2016/2o4r/2o4r_pocket.pdb
REMARK  293 active torsions:
REMARK  status: ('A' for Active; 'I' for Inactive)
REMARK    1  A    between atoms: _1  and  _3
REMARK    2  A    between atoms: _3  and  _4
REMARK    3  A    between atoms: _3  and  _6
REMARK    4  A    between atoms: _6  and  _7
REMARK    5  A    between atoms: _10  and  _12
REMARK    6  A    between atoms: _12  and  _13
REMARK    7  A    between atoms: _12  and  _15
REMARK    8  A    between atoms: _15  and  _16
REMARK    9  A    between atoms: _21  and  _22
REMARK   10  A    between atoms: _24  and  _26
REMARK   11  A    between atoms: _26  and  _27
REMARK   12  A    between atoms: _26  and  _29
REMARK   13  A    between atoms: _29  and  _30
REMARK   14  A    between atoms: _34  and  _35
REMARK   15  A    between atoms: _40  and  _42
REMARK   16  A    between atoms: _42  and  _43
REMARK   17  A    between atoms: _42  and  _45
REMARK   18  A    between atoms: _45  and  _46
REMARK   19  A    between atoms: _51  and  _52
REMARK   20  A    between atoms: _54  and  _56
REMARK   21  A    between atoms: _56  and  _57
REMARK   22  A    between atoms: _56  and  _59
REMARK   23  A    between atoms: _59  and  _60
REMARK   24  A    between atoms: _66  and  _68
REMARK   25  A    between atoms: _68  and  _69
REMARK   26  A    between atoms: _68  and  _71
REMARK   27  A    between atoms: _71  and  _72
REMARK   28  A    between atoms: _78  and  _80
REMARK   29  A    between atoms: _80  and  _81
REMARK   30  A    between atoms: _80  and  _83
REMARK   31  A    between atoms: _83  and  _84
REMARK   32  A    between atoms: _84  and  _85
REMARK   33  A    between atoms: _85  and  _86
REMARK   34  A    between atoms: _95  and  _97
REMARK   35  A    between atoms: _97  and  _98
REMARK   36  A    between atoms: _97  and  _100
REMARK   37  A    between atoms: _100  and  _101
REMARK   38  A    between atoms: _101  and  _102
REMARK   39  A    between atoms: _104  and  _106
REMARK   40  A    between atoms: _106  and  _107
REMARK   41  A    between atoms: _106  and  _109
REMARK   42  A    between atoms: _109  and  _110
REMARK   43  A    between atoms: _114  and  _115
REMARK   44  A    between atoms: _120  and  _122
REMARK   45  A    between atoms: _122  and  _123
REMARK   46  A    between atoms: _122  and  _125
REMARK   47  A    between atoms: _125  and  _126
REMARK   48  A    between atoms: _131  and  _133
REMARK   49  A    between atoms: _133  and  _134
REMARK   50  A    between atoms: _133  and  _136
REMARK   51  A    between atoms: _136  and  _137
REMARK   52  A    between atoms: _140  and  _142
REMARK   53  A    between atoms: _142  and  _143
REMARK   54  A    between atoms: _146  and  _148
REMARK   55  A    between atoms: _148  and  _149
REMARK   56  A    between atoms: _148  and  _151
REMARK   57  A    between atoms: _151  and  _152
REMARK   58  A    between atoms: _155  and  _157
REMARK   59  A    between atoms: _157  and  _158
REMARK   60  A    between atoms: _157  and  _160
REMARK   61  A    between atoms: _160  and  _161
REMARK   62  A    between atoms: _164  and  _166
REMARK   63  A    between atoms: _166  and  _167
REMARK   64  A    between atoms: _166  and  _169
REMARK   65  A    between atoms: _172  and  _174
REMARK   66  A    between atoms: _174  and  _175
REMARK   67  A    between atoms: _174  and  _177
REMARK   68  A    between atoms: _177  and  _178
REMARK   69  A    between atoms: _180  and  _182
REMARK   70  A    between atoms: _182  and  _183
REMARK   71  A    between atoms: _182  and  _185
REMARK   72  A    between atoms: _185  and  _186
REMARK   73  A    between atoms: _191  and  _192
REMARK   74  A    between atoms: _194  and  _196
REMARK   75  A    between atoms: _196  and  _197
REMARK   76  A    between atoms: _196  and  _199
REMARK   77  A    between atoms: _199  and  _200
REMARK   78  A    between atoms: _202  and  _204
REMARK   79  A    between atoms: _204  and  _205
REMARK   80  A    between atoms: _204  and  _207
REMARK   81  A    between atoms: _207  and  _208
REMARK   82  A    between atoms: _211  and  _213
REMARK   83  A    between atoms: _213  and  _214
REMARK   84  A    between atoms: _213  and  _216
REMARK   85  A    between atoms: _216  and  _217
REMARK   86  A    between atoms: _217  and  _218
REMARK   87  A    between atoms: _218  and  _219
REMARK   88  A    between atoms: _219  and  _220
REMARK   89  A    between atoms: _224  and  _226
REMARK   90  A    between atoms: _226  and  _227
REMARK   91  A    between atoms: _226  and  _229
REMARK   92  A    between atoms: _232  and  _234
REMARK   93  A    between atoms: _234  and  _235
REMARK   94  A    between atoms: _238  and  _240
REMARK   95  A    between atoms: _240  and  _241
REMARK   96  A    between atoms: _240  and  _243
REMARK   97  A    between atoms: _243  and  _244
REMARK   98  A    between atoms: _247  and  _249
REMARK   99  A    between atoms: _249  and  _250
REMARK  100  A    between atoms: _249  and  _252
REMARK  101  A    between atoms: _252  and  _253
REMARK  102  A    between atoms: _253  and  _254
REMARK  103  A    between atoms: _257  and  _259
REMARK  104  A    between atoms: _259  and  _260
REMARK  105  A    between atoms: _259  and  _262
REMARK  106  A    between atoms: _265  and  _267
REMARK  107  A    between atoms: _267  and  _268
REMARK  108  A    between atoms: _267  and  _270
REMARK  109  A    between atoms: _270  and  _271
REMARK  110  A    between atoms: _274  and  _276
REMARK  111  A    between atoms: _276  and  _277
REMARK  112  A    between atoms: _276  and  _279
REMARK  113  A    between atoms: _279  and  _280
REMARK  114  A    between atoms: _280  and  _281
REMARK  115  A    between atoms: _283  and  _285
REMARK  116  A    between atoms: _285  and  _286
REMARK  117  A    between atoms: _285  and  _288
REMARK  118  A    between atoms: _288  and  _289
REMARK  119  A    between atoms: _292  and  _294
REMARK  120  A    between atoms: _294  and  _295
REMARK  121  A    between atoms: _294  and  _297
REMARK  122  A    between atoms: _297  and  _298
REMARK  123  A    between atoms: _298  and  _299
REMARK  124  A    between atoms: _299  and  _300
REMARK  125  A    between atoms: _309  and  _311
REMARK  126  A    between atoms: _311  and  _312
REMARK  127  A    between atoms: _311  and  _314
REMARK  128  A    between atoms: _314  and  _315
REMARK  129  A    between atoms: _317  and  _319
REMARK  130  A    between atoms: _319  and  _320
REMARK  131  A    between atoms: _319  and  _322
REMARK  132  A    between atoms: _322  and  _323
REMARK  133  A    between atoms: _328  and  _330
REMARK  134  A    between atoms: _330  and  _331
REMARK  135  A    between atoms: _330  and  _333
REMARK  136  A    between atoms: _333  and  _334
REMARK  137  A    between atoms: _334  and  _335
REMARK  138  A    between atoms: _340  and  _342
REMARK  139  A    between atoms: _342  and  _343
REMARK  140  A    between atoms: _342  and  _345
REMARK  141  A    between atoms: _345  and  _346
REMARK  142  A    between atoms: _348  and  _350
REMARK  143  A    between atoms: _350  and  _351
REMARK  144  A    between atoms: _350  and  _353
REMARK  145  A    between atoms: _353  and  _354
REMARK  146  A    between atoms: _360  and  _362
REMARK  147  A    between atoms: _362  and  _363
REMARK  148  A    between atoms: _362  and  _365
REMARK  149  A    between atoms: _365  and  _366
REMARK  150  A    between atoms: _368  and  _370
REMARK  151  A    between atoms: _370  and  _371
REMARK  152  A    between atoms: _370  and  _373
REMARK  153  A    between atoms: _373  and  _374
REMARK  154  A    between atoms: _384  and  _386
REMARK  155  A    between atoms: _386  and  _387
REMARK  156  A    between atoms: _386  and  _389
REMARK  157  A    between atoms: _389  and  _390
REMARK  158  A    between atoms: _393  and  _395
REMARK  159  A    between atoms: _395  and  _396
REMARK  160  A    between atoms: _395  and  _398
REMARK  161  A    between atoms: _400  and  _402
REMARK  162  A    between atoms: _402  and  _403
REMARK  163  A    between atoms: _402  and  _405
REMARK  164  A    between atoms: _405  and  _406
REMARK  165  A    between atoms: _411  and  _412
REMARK  166  A    between atoms: _414  and  _416
REMARK  167  A    between atoms: _416  and  _417
REMARK  168  A    between atoms: _416  and  _419
REMARK  169  A    between atoms: _419  and  _420
REMARK  170  A    between atoms: _420  and  _421
REMARK  171  A    between atoms: _421  and  _422
REMARK  172  A    between atoms: _422  and  _423
REMARK  173  A    between atoms: _427  and  _429
REMARK  174  A    between atoms: _429  and  _430
REMARK  175  A    between atoms: _429  and  _432
REMARK  176  A    between atoms: _432  and  _433
REMARK  177  A    between atoms: _438  and  _439
REMARK  178  A    between atoms: _441  and  _443
REMARK  179  A    between atoms: _443  and  _444
REMARK  180  A    between atoms: _443  and  _446
REMARK  181  A    between atoms: _446  and  _447
REMARK  182  A    between atoms: _450  and  _452
REMARK  183  A    between atoms: _452  and  _453
REMARK  184  A    between atoms: _452  and  _455
REMARK  185  A    between atoms: _458  and  _460
REMARK  186  A    between atoms: _460  and  _461
REMARK  187  A    between atoms: _460  and  _463
REMARK  188  A    between atoms: _463  and  _464
REMARK  189  A    between atoms: _467  and  _469
REMARK  190  A    between atoms: _469  and  _470
REMARK  191  A    between atoms: _469  and  _472
REMARK  192  A    between atoms: _475  and  _477
REMARK  193  A    between atoms: _477  and  _478
REMARK  194  A    between atoms: _477  and  _480
REMARK  195  A    between atoms: _480  and  _481
REMARK  196  A    between atoms: _483  and  _485
REMARK  197  A    between atoms: _485  and  _486
REMARK  198  A    between atoms: _485  and  _488
REMARK  199  A    between atoms: _488  and  _489
REMARK  200  A    between atoms: _489  and  _490
REMARK  201  A    between atoms: _490  and  _491
REMARK  202  A    between atoms: _491  and  _492
REMARK  203  A    between atoms: _496  and  _498
REMARK  204  A    between atoms: _498  and  _499
REMARK  205  A    between atoms: _502  and  _504
REMARK  206  A    between atoms: _504  and  _505
REMARK  207  A    between atoms: _507  and  _509
REMARK  208  A    between atoms: _509  and  _510
REMARK  209  A    between atoms: _509  and  _512
REMARK  210  A    between atoms: _512  and  _513
REMARK  211  A    between atoms: _518  and  _520
REMARK  212  A    between atoms: _520  and  _521
REMARK  213  A    between atoms: _520  and  _523
REMARK  214  A    between atoms: _523  and  _524
REMARK  215  A    between atoms: _527  and  _529
REMARK  216  A    between atoms: _529  and  _530
REMARK  217  A    between atoms: _529  and  _532
REMARK  218  A    between atoms: _532  and  _533
REMARK  219  A    between atoms: _536  and  _538
REMARK  220  A    between atoms: _538  and  _539
REMARK  221  A    between atoms: _538  and  _541
REMARK  222  A    between atoms: _541  and  _542
REMARK  223  A    between atoms: _545  and  _547
REMARK  224  A    between atoms: _547  and  _548
REMARK  225  A    between atoms: _547  and  _550
REMARK  226  A    between atoms: _550  and  _551
REMARK  227  A    between atoms: _554  and  _556
REMARK  228  A    between atoms: _556  and  _557
REMARK  229  A    between atoms: _556  and  _559
REMARK  230  A    between atoms: _559  and  _560
REMARK  231  A    between atoms: _560  and  _561
REMARK  232  A    between atoms: _566  and  _568
REMARK  233  A    between atoms: _568  and  _569
REMARK  234  A    between atoms: _568  and  _571
REMARK  235  A    between atoms: _571  and  _572
REMARK  236  A    between atoms: _577  and  _579
REMARK  237  A    between atoms: _579  and  _580
REMARK  238  A    between atoms: _579  and  _582
REMARK  239  A    between atoms: _582  and  _583
REMARK  240  A    between atoms: _585  and  _587
REMARK  241  A    between atoms: _587  and  _588
REMARK  242  A    between atoms: _587  and  _590
REMARK  243  A    between atoms: _590  and  _591
REMARK  244  A    between atoms: _591  and  _592
REMARK  245  A    between atoms: _597  and  _599
REMARK  246  A    between atoms: _599  and  _600
REMARK  247  A    between atoms: _599  and  _602
REMARK  248  A    between atoms: _602  and  _603
REMARK  249  A    between atoms: _608  and  _609
REMARK  250  A    between atoms: _611  and  _613
REMARK  251  A    between atoms: _613  and  _614
REMARK  252  A    between atoms: _613  and  _616
REMARK  253  A    between atoms: _616  and  _617
REMARK  254  A    between atoms: _617  and  _618
REMARK  255  A    between atoms: _618  and  _619
REMARK  256  A    between atoms: _628  and  _630
REMARK  257  A    between atoms: _630  and  _631
REMARK  258  A    between atoms: _630  and  _633
REMARK  259  A    between atoms: _633  and  _634
REMARK  260  A    between atoms: _637  and  _639
REMARK  261  A    between atoms: _639  and  _640
REMARK  262  A    between atoms: _639  and  _642
REMARK  263  A    between atoms: _642  and  _643
REMARK  264  A    between atoms: _645  and  _647
REMARK  265  A    between atoms: _647  and  _648
REMARK  266  A    between atoms: _647  and  _650
REMARK  267  A    between atoms: _650  and  _651
REMARK  268  A    between atoms: _656  and  _658
REMARK  269  A    between atoms: _658  and  _659
REMARK  270  A    between atoms: _658  and  _661
REMARK  271  A    between atoms: _661  and  _662
REMARK  272  A    between atoms: _662  and  _663
REMARK  273  A    between atoms: _663  and  _664
REMARK  274  A    between atoms: _664  and  _665
REMARK  275  A    between atoms: _669  and  _671
REMARK  276  A    between atoms: _671  and  _672
REMARK  277  A    between atoms: _671  and  _674
REMARK  278  A    between atoms: _674  and  _675
REMARK  279  A    between atoms: _678  and  _680
REMARK  280  A    between atoms: _680  and  _681
REMARK  281  A    between atoms: _680  and  _683
REMARK  282  A    between atoms: _683  and  _684
REMARK  283  A    between atoms: _687  and  _689
REMARK  284  A    between atoms: _689  and  _690
REMARK  285  A    between atoms: _689  and  _692
REMARK  286  A    between atoms: _695  and  _697
REMARK  287  A    between atoms: _697  and  _698
REMARK  288  A    between atoms: _697  and  _700
REMARK  289  A    between atoms: _700  and  _701
REMARK  290  A    between atoms: _704  and  _706
REMARK  291  A    between atoms: _706  and  _707
REMARK  292  A    between atoms: _706  and  _709
REMARK  293  A    between atoms: _709  and  _710
REMARK                            x       y       z     vdW  Elec       q    Type
REMARK                         _______ _______ _______ _____ _____    ______ ____
ROOT
ATOM      1  CB  ASN A   1      73.886  -3.502 -11.676  0.00  0.00    +0.110 C 
ENDROOT
BRANCH   1   2
ATOM      2  CG  ASN A   1      73.851  -2.988 -13.098  0.00  0.00    +0.221 C 
ATOM      3  OD1 ASN A   1      74.433  -1.946 -13.415  0.00  0.00    -0.275 OA
ATOM      4  ND2 ASN A   1      73.146  -3.720 -13.969  0.00  0.00    -0.329 N 
ATOM      5 HD21 ASN A   1      72.673  -4.591 -13.653  0.00  0.00    +0.145 HD
ATOM      6 HD22 ASN A   1      73.071  -3.418 -14.961  0.00  0.00    +0.145 HD
ENDBRANCH   1   2
BRANCH   1   7
ATOM      7  CA  ASN A   1      75.197  -3.161 -10.937  0.00  0.00    +0.142 C 
BRANCH   7   8
ATOM      8  N   ASN A   1      76.350  -3.793 -11.576  0.00  0.00    -0.239 NA
ATOM      9  H   ASN A   1      76.200  -4.632 -12.171  0.00  0.00    +0.142 HD
ENDBRANCH   7   8
BRANCH   7  10
ATOM     10  C   ASN A   1      75.056  -3.647  -9.505  0.00  0.00    +0.225 C 
ATOM     11  O   ASN A   1      74.736  -2.872  -8.627  0.00  0.00    -0.287 OA
ENDBRANCH   7  10
ENDBRANCH   1   7
TORSDOF 4
REMARK  Name = ../refined-set-2016/2o4r/2o4r_pocket.pdb
REMARK  293 active torsions:
REMARK  status: ('A' for Active; 'I' for Inactive)
REMARK    1  A    between atoms: _1  and  _3
REMARK    2  A    between atoms: _3  and  _4
REMARK    3  A    between atoms: _3  and  _6
REMARK    4  A    between atoms: _6  and  _7
REMARK    5  A    between atoms: _10  and  _12
REMARK    6  A    between atoms: _12  and  _13
REMARK    7  A    between atoms: _12  and  _15
REMARK    8  A    between atoms: _15  and  _16
REMARK    9  A    between atoms: _21  and  _22
REMARK   10  A    between atoms: _24  and  _26
REMARK   11  A    between atoms: _26  and  _27
REMARK   12  A    between atoms: _26  and  _29
REMARK   13  A    between atoms: _29  and  _30
REMARK   14  A    between atoms: _34  and  _35
REMARK   15  A    between atoms: _40  and  _42
REMARK   16  A    between atoms: _42  and  _43
REMARK   17  A    between atoms: _42  and  _45
REMARK   18  A    between atoms: _45  and  _46
REMARK   19  A    between atoms: _51  and  _52
REMARK   20  A    between atoms: _54  and  _56
REMARK   21  A    between atoms: _56  and  _57
REMARK   22  A    between atoms: _56  and  _59
REMARK   23  A    between atoms: _59  and  _60
REMARK   24  A    between atoms: _66  and  _68
REMARK   25  A    between atoms: _68  and  _69
REMARK   26  A    between atoms: _68  and  _71
REMARK   27  A    between atoms: _71  and  _72
REMARK   28  A    between atoms: _78  and  _80
REMARK   29  A    between atoms: _80  and  _81
REMARK   30  A    between atoms: _80  and  _83
REMARK   31  A    between atoms: _83  and  _84
REMARK   32  A    between atoms: _84  and  _85
REMARK   33  A    between atoms: _85  and  _86
REMARK   34  A    between atoms: _95  and  _97
REMARK   35  A    between atoms: _97  and  _98
REMARK   36  A    between atoms: _97  and  _100
REMARK   37  A    between atoms: _100  and  _101
REMARK   38  A    between atoms: _101  and  _102
REMARK   39  A    between atoms: _104  and  _106
REMARK   40  A    between atoms: _106  and  _107
REMARK   41  A    between atoms: _106  and  _109
REMARK   42  A    between atoms: _109  and  _110
REMARK   43  A    between atoms: _114  and  _115
REMARK   44  A    between atoms: _120  and  _122
REMARK   45  A    between atoms: _122  and  _123
REMARK   46  A    between atoms: _122  and  _125
REMARK   47  A    between atoms: _125  and  _126
REMARK   48  A    between atoms: _131  and  _133
REMARK   49  A    between atoms: _133  and  _134
REMARK   50  A    between atoms: _133  and  _136
REMARK   51  A    between atoms: _136  and  _137
REMARK   52  A    between atoms: _140  and  _142
REMARK   53  A    between atoms: _142  and  _143
REMARK   54  A    between atoms: _146  and  _148
REMARK   55  A    between atoms: _148  and  _149
REMARK   56  A    between atoms: _148  and  _151
REMARK   57  A    between atoms: _151  and  _152
REMARK   58  A    between atoms: _155  and  _157
REMARK   59  A    between atoms: _157  and  _158
REMARK   60  A    between atoms: _157  and  _160
REMARK   61  A    between atoms: _160  and  _161
REMARK   62  A    between atoms: _164  and  _166
REMARK   63  A    between atoms: _166  and  _167
REMARK   64  A    between atoms: _166  and  _169
REMARK   65  A    between atoms: _172  and  _174
REMARK   66  A    between atoms: _174  and  _175
REMARK   67  A    between atoms: _174  and  _177
REMARK   68  A    between atoms: _177  and  _178
REMARK   69  A    between atoms: _180  and  _182
REMARK   70  A    between atoms: _182  and  _183
REMARK   71  A    between atoms: _182  and  _185
REMARK   72  A    between atoms: _185  and  _186
REMARK   73  A    between atoms: _191  and  _192
REMARK   74  A    between atoms: _194  and  _196
REMARK   75  A    between atoms: _196  and  _197
REMARK   76  A    between atoms: _196  and  _199
REMARK   77  A    between atoms: _199  and  _200
REMARK   78  A    between atoms: _202  and  _204
REMARK   79  A    between atoms: _204  and  _205
REMARK   80  A    between atoms: _204  and  _207
REMARK   81  A    between atoms: _207  and  _208
REMARK   82  A    between atoms: _211  and  _213
REMARK   83  A    between atoms: _213  and  _214
REMARK   84  A    between atoms: _213  and  _216
REMARK   85  A    between atoms: _216  and  _217
REMARK   86  A    between atoms: _217  and  _218
REMARK   87  A    between atoms: _218  and  _219
REMARK   88  A    between atoms: _219  and  _220
REMARK   89  A    between atoms: _224  and  _226
REMARK   90  A    between atoms: _226  and  _227
REMARK   91  A    between atoms: _226  and  _229
REMARK   92  A    between atoms: _232  and  _234
REMARK   93  A    between atoms: _234  and  _235
REMARK   94  A    between atoms: _238  and  _240
REMARK   95  A    between atoms: _240  and  _241
REMARK   96  A    between atoms: _240  and  _243
REMARK   97  A    between atoms: _243  and  _244
REMARK   98  A    between atoms: _247  and  _249
REMARK   99  A    between atoms: _249  and  _250
REMARK  100  A    between atoms: _249  and  _252
REMARK  101  A    between atoms: _252  and  _253
REMARK  102  A    between atoms: _253  and  _254
REMARK  103  A    between atoms: _257  and  _259
REMARK  104  A    between atoms: _259  and  _260
REMARK  105  A    between atoms: _259  and  _262
REMARK  106  A    between atoms: _265  and  _267
REMARK  107  A    between atoms: _267  and  _268
REMARK  108  A    between atoms: _267  and  _270
REMARK  109  A    between atoms: _270  and  _271
REMARK  110  A    between atoms: _274  and  _276
REMARK  111  A    between atoms: _276  and  _277
REMARK  112  A    between atoms: _276  and  _279
REMARK  113  A    between atoms: _279  and  _280
REMARK  114  A    between atoms: _280  and  _281
REMARK  115  A    between atoms: _283  and  _285
REMARK  116  A    between atoms: _285  and  _286
REMARK  117  A    between atoms: _285  and  _288
REMARK  118  A    between atoms: _288  and  _289
REMARK  119  A    between atoms: _292  and  _294
REMARK  120  A    between atoms: _294  and  _295
REMARK  121  A    between atoms: _294  and  _297
REMARK  122  A    between atoms: _297  and  _298
REMARK  123  A    between atoms: _298  and  _299
REMARK  124  A    between atoms: _299  and  _300
REMARK  125  A    between atoms: _309  and  _311
REMARK  126  A    between atoms: _311  and  _312
REMARK  127  A    between atoms: _311  and  _314
REMARK  128  A    between atoms: _314  and  _315
REMARK  129  A    between atoms: _317  and  _319
REMARK  130  A    between atoms: _319  and  _320
REMARK  131  A    between atoms: _319  and  _322
REMARK  132  A    between atoms: _322  and  _323
REMARK  133  A    between atoms: _328  and  _330
REMARK  134  A    between atoms: _330  and  _331
REMARK  135  A    between atoms: _330  and  _333
REMARK  136  A    between atoms: _333  and  _334
REMARK  137  A    between atoms: _334  and  _335
REMARK  138  A    between atoms: _340  and  _342
REMARK  139  A    between atoms: _342  and  _343
REMARK  140  A    between atoms: _342  and  _345
REMARK  141  A    between atoms: _345  and  _346
REMARK  142  A    between atoms: _348  and  _350
REMARK  143  A    between atoms: _350  and  _351
REMARK  144  A    between atoms: _350  and  _353
REMARK  145  A    between atoms: _353  and  _354
REMARK  146  A    between atoms: _360  and  _362
REMARK  147  A    between atoms: _362  and  _363
REMARK  148  A    between atoms: _362  and  _365
REMARK  149  A    between atoms: _365  and  _366
REMARK  150  A    between atoms: _368  and  _370
REMARK  151  A    between atoms: _370  and  _371
REMARK  152  A    between atoms: _370  and  _373
REMARK  153  A    between atoms: _373  and  _374
REMARK  154  A    between atoms: _384  and  _386
REMARK  155  A    between atoms: _386  and  _387
REMARK  156  A    between atoms: _386  and  _389
REMARK  157  A    between atoms: _389  and  _390
REMARK  158  A    between atoms: _393  and  _395
REMARK  159  A    between atoms: _395  and  _396
REMARK  160  A    between atoms: _395  and  _398
REMARK  161  A    between atoms: _400  and  _402
REMARK  162  A    between atoms: _402  and  _403
REMARK  163  A    between atoms: _402  and  _405
REMARK  164  A    between atoms: _405  and  _406
REMARK  165  A    between atoms: _411  and  _412
REMARK  166  A    between atoms: _414  and  _416
REMARK  167  A    between atoms: _416  and  _417
REMARK  168  A    between atoms: _416  and  _419
REMARK  169  A    between atoms: _419  and  _420
REMARK  170  A    between atoms: _420  and  _421
REMARK  171  A    between atoms: _421  and  _422
REMARK  172  A    between atoms: _422  and  _423
REMARK  173  A    between atoms: _427  and  _429
REMARK  174  A    between atoms: _429  and  _430
REMARK  175  A    between atoms: _429  and  _432
REMARK  176  A    between atoms: _432  and  _433
REMARK  177  A    between atoms: _438  and  _439
REMARK  178  A    between atoms: _441  and  _443
REMARK  179  A    between atoms: _443  and  _444
REMARK  180  A    between atoms: _443  and  _446
REMARK  181  A    between atoms: _446  and  _447
REMARK  182  A    between atoms: _450  and  _452
REMARK  183  A    between atoms: _452  and  _453
REMARK  184  A    between atoms: _452  and  _455
REMARK  185  A    between atoms: _458  and  _460
REMARK  186  A    between atoms: _460  and  _461
REMARK  187  A    between atoms: _460  and  _463
REMARK  188  A    between atoms: _463  and  _464
REMARK  189  A    between atoms: _467  and  _469
REMARK  190  A    between atoms: _469  and  _470
REMARK  191  A    between atoms: _469  and  _472
REMARK  192  A    between atoms: _475  and  _477
REMARK  193  A    between atoms: _477  and  _478
REMARK  194  A    between atoms: _477  and  _480
REMARK  195  A    between atoms: _480  and  _481
REMARK  196  A    between atoms: _483  and  _485
REMARK  197  A    between atoms: _485  and  _486
REMARK  198  A    between atoms: _485  and  _488
REMARK  199  A    between atoms: _488  and  _489
REMARK  200  A    between atoms: _489  and  _490
REMARK  201  A    between atoms: _490  and  _491
REMARK  202  A    between atoms: _491  and  _492
REMARK  203  A    between atoms: _496  and  _498
REMARK  204  A    between atoms: _498  and  _499
REMARK  205  A    between atoms: _502  and  _504
REMARK  206  A    between atoms: _504  and  _505
REMARK  207  A    between atoms: _507  and  _509
REMARK  208  A    between atoms: _509  and  _510
REMARK  209  A    between atoms: _509  and  _512
REMARK  210  A    between atoms: _512  and  _513
REMARK  211  A    between atoms: _518  and  _520
REMARK  212  A    between atoms: _520  and  _521
REMARK  213  A    between atoms: _520  and  _523
REMARK  214  A    between atoms: _523  and  _524
REMARK  215  A    between atoms: _527  and  _529
REMARK  216  A    between atoms: _529  and  _530
REMARK  217  A    between atoms: _529  and  _532
REMARK  218  A    between atoms: _532  and  _533
REMARK  219  A    between atoms: _536  and  _538
REMARK  220  A    between atoms: _538  and  _539
REMARK  221  A    between atoms: _538  and  _541
REMARK  222  A    between atoms: _541  and  _542
REMARK  223  A    between atoms: _545  and  _547
REMARK  224  A    between atoms: _547  and  _548
REMARK  225  A    between atoms: _547  and  _550
REMARK  226  A    between atoms: _550  and  _551
REMARK  227  A    between atoms: _554  and  _556
REMARK  228  A    between atoms: _556  and  _557
REMARK  229  A    between atoms: _556  and  _559
REMARK  230  A    between atoms: _559  and  _560
REMARK  231  A    between atoms: _560  and  _561
REMARK  232  A    between atoms: _566  and  _568
REMARK  233  A    between atoms: _568  and  _569
REMARK  234  A    between atoms: _568  and  _571
REMARK  235  A    between atoms: _571  and  _572
REMARK  236  A    between atoms: _577  and  _579
REMARK  237  A    between atoms: _579  and  _580
REMARK  238  A    between atoms: _579  and  _582
REMARK  239  A    between atoms: _582  and  _583
REMARK  240  A    between atoms: _585  and  _587
REMARK  241  A    between atoms: _587  and  _588
REMARK  242  A    between atoms: _587  and  _590
REMARK  243  A    between atoms: _590  and  _591
REMARK  244  A    between atoms: _591  and  _592
REMARK  245  A    between atoms: _597  and  _599
REMARK  246  A    between atoms: _599  and  _600
REMARK  247  A    between atoms: _599  and  _602
REMARK  248  A    between atoms: _602  and  _603
REMARK  249  A    between atoms: _608  and  _609
REMARK  250  A    between atoms: _611  and  _613
REMARK  251  A    between atoms: _613  and  _614
REMARK  252  A    between atoms: _613  and  _616
REMARK  253  A    between atoms: _616  and  _617
REMARK  254  A    between atoms: _617  and  _618
REMARK  255  A    between atoms: _618  and  _619
REMARK  256  A    between atoms: _628  and  _630
REMARK  257  A    between atoms: _630  and  _631
REMARK  258  A    between atoms: _630  and  _633
REMARK  259  A    between atoms: _633  and  _634
REMARK  260  A    between atoms: _637  and  _639
REMARK  261  A    between atoms: _639  and  _640
REMARK  262  A    between atoms: _639  and  _642
REMARK  263  A    between atoms: _642  and  _643
REMARK  264  A    between atoms: _645  and  _647
REMARK  265  A    between atoms: _647  and  _648
REMARK  266  A    between atoms: _647  and  _650
REMARK  267  A    between atoms: _650  and  _651
REMARK  268  A    between atoms: _656  and  _658
REMARK  269  A    between atoms: _658  and  _659
REMARK  270  A    between atoms: _658  and  _661
REMARK  271  A    between atoms: _661  and  _662
REMARK  272  A    between atoms: _662  and  _663
REMARK  273  A    between atoms: _663  and  _664
REMARK  274  A    between atoms: _664  and  _665
REMARK  275  A    between atoms: _669  and  _671
REMARK  276  A    between atoms: _671  and  _672
REMARK  277  A    between atoms: _671  and  _674
REMARK  278  A    between atoms: _674  and  _675
REMARK  279  A    between atoms: _678  and  _680
REMARK  280  A    between atoms: _680  and  _681
REMARK  281  A    between atoms: _680  and  _683
REMARK  282  A    between atoms: _683  and  _684
REMARK  283  A    between atoms: _687  and  _689
REMARK  284  A    between atoms: _689  and  _690
REMARK  285  A    between atoms: _689  and  _692
REMARK  286  A    between atoms: _695  and  _697
REMARK  287  A    between atoms: _697  and  _698
REMARK  288  A    between atoms: _697  and  _700
REMARK  289  A    between atoms: _700  and  _701
REMARK  290  A    between atoms: _704  and  _706
REMARK  291  A    between atoms: _706  and  _707
REMARK  292  A    between atoms: _706  and  _709
REMARK  293  A    between atoms: _709  and  _710
REMARK                            x       y       z     vdW  Elec       q    Type
REMARK                         _______ _______ _______ _____ _____    ______ ____
ROOT
ATOM      1  CA  LEU A   2      73.769  -2.113  -4.128  0.00  0.00    +0.149 C 
ENDROOT
BRANCH   1   4
ATOM      2  C   LYS A   1      75.169  -0.616  -5.458  0.00  0.00    +0.238 C 
ATOM      3  O   LYS A   1      74.719   0.408  -4.919  0.00  0.00    -0.274 OA
ATOM      4  N   LEU A   2      74.808  -1.834  -5.102  0.00  0.00    -0.297 N 
ATOM      5  H   LEU A   2      75.295  -2.639  -5.544  0.00  0.00    +0.150 HD
BRANCH   2   6
ATOM      6  CA  LYS A   1      76.213  -0.533  -6.583  0.00  0.00    +0.145 C 
BRANCH   6   7
ATOM      7  N   LYS A   1      76.788  -1.825  -6.938  0.00  0.00    -0.238 NA
ATOM      8  H   LYS A   1      76.396  -2.347  -7.747  0.00  0.00    +0.142 HD
ENDBRANCH   6   7
BRANCH   6   9
ATOM      9  CB  LYS A   1      75.600   0.145  -7.825  0.00  0.00    +0.026 C 
BRANCH   9  10
ATOM     10  CG  LYS A   1      76.581   0.483  -8.973  0.00  0.00    -0.000 C 
BRANCH  10  11
ATOM     11  CD  LYS A   1      77.803   1.250  -8.469  0.00  0.00    -0.024 C 
BRANCH  11  12
ATOM     12  CE  LYS A   1      78.671   1.789  -9.614  0.00  0.00    -0.086 C 
BRANCH  12  13
ATOM     13  NZ  LYS A   1      79.625   0.760 -10.123  0.00  0.00    +0.380 N 
ATOM     14  HZ1 LYS A   1      80.254   0.460  -9.351  0.00  0.00    -0.089 HD
ATOM     15  HZ2 LYS A   1      79.092  -0.060 -10.476  0.00  0.00    -0.089 HD
ATOM     16  HZ3 LYS A   1      80.191   1.166 -10.895  0.00  0.00    -0.089 HD
ENDBRANCH  12  13
ENDBRANCH  11  12
ENDBRANCH  10  11
ENDBRANCH   9  10
ENDBRANCH   6   9
ENDBRANCH   2   6
ENDBRANCH   1   4
BRANCH   1  17
ATOM     17  C   LEU A   2      74.360  -2.098  -2.721  0.00  0.00    +0.241 C 
ATOM     18  N   THR A   3      73.576  -2.542  -1.735  0.00  0.00    -0.296 N 
ATOM     19  H   THR A   3      72.614  -2.872  -1.950  0.00  0.00    +0.150 HD
ATOM     20  O   LEU A   2      75.505  -1.694  -2.528  0.00  0.00    -0.273 OA
BRANCH  18  21
ATOM     21  CA  THR A   3      74.056  -2.567  -0.368  0.00  0.00    +0.164 C 
BRANCH  21  22
ATOM     22  CB  THR A   3      73.217  -1.678   0.558  0.00  0.00    +0.136 C 
ATOM     23  CG2 THR A   3      73.038  -0.259  -0.042  0.00  0.00    +0.034 C 
BRANCH  22  24
ATOM     24  OG1 THR A   3      71.946  -2.300   0.758  0.00  0.00    -0.382 OA
ATOM     25  HG1 THR A   3      71.394  -1.735   1.355  0.00  0.00    +0.210 HD
ENDBRANCH  22  24
ENDBRANCH  21  22
BRANCH  21  26
ATOM     26  C   THR A   3      73.990  -3.993   0.086  0.00  0.00    +0.229 C 
ATOM     27  O   THR A   3      73.297  -4.798  -0.505  0.00  0.00    -0.286 OA
ENDBRANCH  21  26
ENDBRANCH  18  21
ENDBRANCH   1  17
BRANCH   1  28
ATOM     28  CB  LEU A   2      73.108  -3.493  -4.441  0.00  0.00    +0.029 C 
BRANCH  28  29
ATOM     29  CG  LEU A   2      72.439  -3.681  -5.834  0.00  0.00    +0.002 C 
ATOM     30  CD2 LEU A   2      71.762  -5.019  -6.016  0.00  0.00    +0.000 C 
ATOM     31  CD1 LEU A   2      71.428  -2.590  -6.141  0.00  0.00    +0.000 C 
ENDBRANCH  28  29
ENDBRANCH   1  28
TORSDOF 15
REMARK  Name = ../refined-set-2016/2o4r/2o4r_pocket.pdb
REMARK  293 active torsions:
REMARK  status: ('A' for Active; 'I' for Inactive)
REMARK    1  A    between atoms: _1  and  _3
REMARK    2  A    between atoms: _3  and  _4
REMARK    3  A    between atoms: _3  and  _6
REMARK    4  A    between atoms: _6  and  _7
REMARK    5  A    between atoms: _10  and  _12
REMARK    6  A    between atoms: _12  and  _13
REMARK    7  A    between atoms: _12  and  _15
REMARK    8  A    between atoms: _15  and  _16
REMARK    9  A    between atoms: _21  and  _22
REMARK   10  A    between atoms: _24  and  _26
REMARK   11  A    between atoms: _26  and  _27
REMARK   12  A    between atoms: _26  and  _29
REMARK   13  A    between atoms: _29  and  _30
REMARK   14  A    between atoms: _34  and  _35
REMARK   15  A    between atoms: _40  and  _42
REMARK   16  A    between atoms: _42  and  _43
REMARK   17  A    between atoms: _42  and  _45
REMARK   18  A    between atoms: _45  and  _46
REMARK   19  A    between atoms: _51  and  _52
REMARK   20  A    between atoms: _54  and  _56
REMARK   21  A    between atoms: _56  and  _57
REMARK   22  A    between atoms: _56  and  _59
REMARK   23  A    between atoms: _59  and  _60
REMARK   24  A    between atoms: _66  and  _68
REMARK   25  A    between atoms: _68  and  _69
REMARK   26  A    between atoms: _68  and  _71
REMARK   27  A    between atoms: _71  and  _72
REMARK   28  A    between atoms: _78  and  _80
REMARK   29  A    between atoms: _80  and  _81
REMARK   30  A    between atoms: _80  and  _83
REMARK   31  A    between atoms: _83  and  _84
REMARK   32  A    between atoms: _84  and  _85
REMARK   33  A    between atoms: _85  and  _86
REMARK   34  A    between atoms: _95  and  _97
REMARK   35  A    between atoms: _97  and  _98
REMARK   36  A    between atoms: _97  and  _100
REMARK   37  A    between atoms: _100  and  _101
REMARK   38  A    between atoms: _101  and  _102
REMARK   39  A    between atoms: _104  and  _106
REMARK   40  A    between atoms: _106  and  _107
REMARK   41  A    between atoms: _106  and  _109
REMARK   42  A    between atoms: _109  and  _110
REMARK   43  A    between atoms: _114  and  _115
REMARK   44  A    between atoms: _120  and  _122
REMARK   45  A    between atoms: _122  and  _123
REMARK   46  A    between atoms: _122  and  _125
REMARK   47  A    between atoms: _125  and  _126
REMARK   48  A    between atoms: _131  and  _133
REMARK   49  A    between atoms: _133  and  _134
REMARK   50  A    between atoms: _133  and  _136
REMARK   51  A    between atoms: _136  and  _137
REMARK   52  A    between atoms: _140  and  _142
REMARK   53  A    between atoms: _142  and  _143
REMARK   54  A    between atoms: _146  and  _148
REMARK   55  A    between atoms: _148  and  _149
REMARK   56  A    between atoms: _148  and  _151
REMARK   57  A    between atoms: _151  and  _152
REMARK   58  A    between atoms: _155  and  _157
REMARK   59  A    between atoms: _157  and  _158
REMARK   60  A    between atoms: _157  and  _160
REMARK   61  A    between atoms: _160  and  _161
REMARK   62  A    between atoms: _164  and  _166
REMARK   63  A    between atoms: _166  and  _167
REMARK   64  A    between atoms: _166  and  _169
REMARK   65  A    between atoms: _172  and  _174
REMARK   66  A    between atoms: _174  and  _175
REMARK   67  A    between atoms: _174  and  _177
REMARK   68  A    between atoms: _177  and  _178
REMARK   69  A    between atoms: _180  and  _182
REMARK   70  A    between atoms: _182  and  _183
REMARK   71  A    between atoms: _182  and  _185
REMARK   72  A    between atoms: _185  and  _186
REMARK   73  A    between atoms: _191  and  _192
REMARK   74  A    between atoms: _194  and  _196
REMARK   75  A    between atoms: _196  and  _197
REMARK   76  A    between atoms: _196  and  _199
REMARK   77  A    between atoms: _199  and  _200
REMARK   78  A    between atoms: _202  and  _204
REMARK   79  A    between atoms: _204  and  _205
REMARK   80  A    between atoms: _204  and  _207
REMARK   81  A    between atoms: _207  and  _208
REMARK   82  A    between atoms: _211  and  _213
REMARK   83  A    between atoms: _213  and  _214
REMARK   84  A    between atoms: _213  and  _216
REMARK   85  A    between atoms: _216  and  _217
REMARK   86  A    between atoms: _217  and  _218
REMARK   87  A    between atoms: _218  and  _219
REMARK   88  A    between atoms: _219  and  _220
REMARK   89  A    between atoms: _224  and  _226
REMARK   90  A    between atoms: _226  and  _227
REMARK   91  A    between atoms: _226  and  _229
REMARK   92  A    between atoms: _232  and  _234
REMARK   93  A    between atoms: _234  and  _235
REMARK   94  A    between atoms: _238  and  _240
REMARK   95  A    between atoms: _240  and  _241
REMARK   96  A    between atoms: _240  and  _243
REMARK   97  A    between atoms: _243  and  _244
REMARK   98  A    between atoms: _247  and  _249
REMARK   99  A    between atoms: _249  and  _250
REMARK  100  A    between atoms: _249  and  _252
REMARK  101  A    between atoms: _252  and  _253
REMARK  102  A    between atoms: _253  and  _254
REMARK  103  A    between atoms: _257  and  _259
REMARK  104  A    between atoms: _259  and  _260
REMARK  105  A    between atoms: _259  and  _262
REMARK  106  A    between atoms: _265  and  _267
REMARK  107  A    between atoms: _267  and  _268
REMARK  108  A    between atoms: _267  and  _270
REMARK  109  A    between atoms: _270  and  _271
REMARK  110  A    between atoms: _274  and  _276
REMARK  111  A    between atoms: _276  and  _277
REMARK  112  A    between atoms: _276  and  _279
REMARK  113  A    between atoms: _279  and  _280
REMARK  114  A    between atoms: _280  and  _281
REMARK  115  A    between atoms: _283  and  _285
REMARK  116  A    between atoms: _285  and  _286
REMARK  117  A    between atoms: _285  and  _288
REMARK  118  A    between atoms: _288  and  _289
REMARK  119  A    between atoms: _292  and  _294
REMARK  120  A    between atoms: _294  and  _295
REMARK  121  A    between atoms: _294  and  _297
REMARK  122  A    between atoms: _297  and  _298
REMARK  123  A    between atoms: _298  and  _299
REMARK  124  A    between atoms: _299  and  _300
REMARK  125  A    between atoms: _309  and  _311
REMARK  126  A    between atoms: _311  and  _312
REMARK  127  A    between atoms: _311  and  _314
REMARK  128  A    between atoms: _314  and  _315
REMARK  129  A    between atoms: _317  and  _319
REMARK  130  A    between atoms: _319  and  _320
REMARK  131  A    between atoms: _319  and  _322
REMARK  132  A    between atoms: _322  and  _323
REMARK  133  A    between atoms: _328  and  _330
REMARK  134  A    between atoms: _330  and  _331
REMARK  135  A    between atoms: _330  and  _333
REMARK  136  A    between atoms: _333  and  _334
REMARK  137  A    between atoms: _334  and  _335
REMARK  138  A    between atoms: _340  and  _342
REMARK  139  A    between atoms: _342  and  _343
REMARK  140  A    between atoms: _342  and  _345
REMARK  141  A    between atoms: _345  and  _346
REMARK  142  A    between atoms: _348  and  _350
REMARK  143  A    between atoms: _350  and  _351
REMARK  144  A    between atoms: _350  and  _353
REMARK  145  A    between atoms: _353  and  _354
REMARK  146  A    between atoms: _360  and  _362
REMARK  147  A    between atoms: _362  and  _363
REMARK  148  A    between atoms: _362  and  _365
REMARK  149  A    between atoms: _365  and  _366
REMARK  150  A    between atoms: _368  and  _370
REMARK  151  A    between atoms: _370  and  _371
REMARK  152  A    between atoms: _370  and  _373
REMARK  153  A    between atoms: _373  and  _374
REMARK  154  A    between atoms: _384  and  _386
REMARK  155  A    between atoms: _386  and  _387
REMARK  156  A    between atoms: _386  and  _389
REMARK  157  A    between atoms: _389  and  _390
REMARK  158  A    between atoms: _393  and  _395
REMARK  159  A    between atoms: _395  and  _396
REMARK  160  A    between atoms: _395  and  _398
REMARK  161  A    between atoms: _400  and  _402
REMARK  162  A    between atoms: _402  and  _403
REMARK  163  A    between atoms: _402  and  _405
REMARK  164  A    between atoms: _405  and  _406
REMARK  165  A    between atoms: _411  and  _412
REMARK  166  A    between atoms: _414  and  _416
REMARK  167  A    between atoms: _416  and  _417
REMARK  168  A    between atoms: _416  and  _419
REMARK  169  A    between atoms: _419  and  _420
REMARK  170  A    between atoms: _420  and  _421
REMARK  171  A    between atoms: _421  and  _422
REMARK  172  A    between atoms: _422  and  _423
REMARK  173  A    between atoms: _427  and  _429
REMARK  174  A    between atoms: _429  and  _430
REMARK  175  A    between atoms: _429  and  _432
REMARK  176  A    between atoms: _432  and  _433
REMARK  177  A    between atoms: _438  and  _439
REMARK  178  A    between atoms: _441  and  _443
REMARK  179  A    between atoms: _443  and  _444
REMARK  180  A    between atoms: _443  and  _446
REMARK  181  A    between atoms: _446  and  _447
REMARK  182  A    between atoms: _450  and  _452
REMARK  183  A    between atoms: _452  and  _453
REMARK  184  A    between atoms: _452  and  _455
REMARK  185  A    between atoms: _458  and  _460
REMARK  186  A    between atoms: _460  and  _461
REMARK  187  A    between atoms: _460  and  _463
REMARK  188  A    between atoms: _463  and  _464
REMARK  189  A    between atoms: _467  and  _469
REMARK  190  A    between atoms: _469  and  _470
REMARK  191  A    between atoms: _469  and  _472
REMARK  192  A    between atoms: _475  and  _477
REMARK  193  A    between atoms: _477  and  _478
REMARK  194  A    between atoms: _477  and  _480
REMARK  195  A    between atoms: _480  and  _481
REMARK  196  A    between atoms: _483  and  _485
REMARK  197  A    between atoms: _485  and  _486
REMARK  198  A    between atoms: _485  and  _488
REMARK  199  A    between atoms: _488  and  _489
REMARK  200  A    between atoms: _489  and  _490
REMARK  201  A    between atoms: _490  and  _491
REMARK  202  A    between atoms: _491  and  _492
REMARK  203  A    between atoms: _496  and  _498
REMARK  204  A    between atoms: _498  and  _499
REMARK  205  A    between atoms: _502  and  _504
REMARK  206  A    between atoms: _504  and  _505
REMARK  207  A    between atoms: _507  and  _509
REMARK  208  A    between atoms: _509  and  _510
REMARK  209  A    between atoms: _509  and  _512
REMARK  210  A    between atoms: _512  and  _513
REMARK  211  A    between atoms: _518  and  _520
REMARK  212  A    between atoms: _520  and  _521
REMARK  213  A    between atoms: _520  and  _523
REMARK  214  A    between atoms: _523  and  _524
REMARK  215  A    between atoms: _527  and  _529
REMARK  216  A    between atoms: _529  and  _530
REMARK  217  A    between atoms: _529  and  _532
REMARK  218  A    between atoms: _532  and  _533
REMARK  219  A    between atoms: _536  and  _538
REMARK  220  A    between atoms: _538  and  _539
REMARK  221  A    between atoms: _538  and  _541
REMARK  222  A    between atoms: _541  and  _542
REMARK  223  A    between atoms: _545  and  _547
REMARK  224  A    between atoms: _547  and  _548
REMARK  225  A    between atoms: _547  and  _550
REMARK  226  A    between atoms: _550  and  _551
REMARK  227  A    between atoms: _554  and  _556
REMARK  228  A    between atoms: _556  and  _557
REMARK  229  A    between atoms: _556  and  _559
REMARK  230  A    between atoms: _559  and  _560
REMARK  231  A    between atoms: _560  and  _561
REMARK  232  A    between atoms: _566  and  _568
REMARK  233  A    between atoms: _568  and  _569
REMARK  234  A    between atoms: _568  and  _571
REMARK  235  A    between atoms: _571  and  _572
REMARK  236  A    between atoms: _577  and  _579
REMARK  237  A    between atoms: _579  and  _580
REMARK  238  A    between atoms: _579  and  _582
REMARK  239  A    between atoms: _582  and  _583
REMARK  240  A    between atoms: _585  and  _587
REMARK  241  A    between atoms: _587  and  _588
REMARK  242  A    between atoms: _587  and  _590
REMARK  243  A    between atoms: _590  and  _591
REMARK  244  A    between atoms: _591  and  _592
REMARK  245  A    between atoms: _597  and  _599
REMARK  246  A    between atoms: _599  and  _600
REMARK  247  A    between atoms: _599  and  _602
REMARK  248  A    between atoms: _602  and  _603
REMARK  249  A    between atoms: _608  and  _609
REMARK  250  A    between atoms: _611  and  _613
REMARK  251  A    between atoms: _613  and  _614
REMARK  252  A    between atoms: _613  and  _616
REMARK  253  A    between atoms: _616  and  _617
REMARK  254  A    between atoms: _617  and  _618
REMARK  255  A    between atoms: _618  and  _619
REMARK  256  A    between atoms: _628  and  _630
REMARK  257  A    between atoms: _630  and  _631
REMARK  258  A    between atoms: _630  and  _633
REMARK  259  A    between atoms: _633  and  _634
REMARK  260  A    between atoms: _637  and  _639
REMARK  261  A    between atoms: _639  and  _640
REMARK  262  A    between atoms: _639  and  _642
REMARK  263  A    between atoms: _642  and  _643
REMARK  264  A    between atoms: _645  and  _647
REMARK  265  A    between atoms: _647  and  _648
REMARK  266  A    between atoms: _647  and  _650
REMARK  267  A    between atoms: _650  and  _651
REMARK  268  A    between atoms: _656  and  _658
REMARK  269  A    between atoms: _658  and  _659
REMARK  270  A    between atoms: _658  and  _661
REMARK  271  A    between atoms: _661  and  _662
REMARK  272  A    between atoms: _662  and  _663
REMARK  273  A    between atoms: _663  and  _664
REMARK  274  A    between atoms: _664  and  _665
REMARK  275  A    between atoms: _669  and  _671
REMARK  276  A    between atoms: _671  and  _672
REMARK  277  A    between atoms: _671  and  _674
REMARK  278  A    between atoms: _674  and  _675
REMARK  279  A    between atoms: _678  and  _680
REMARK  280  A    between atoms: _680  and  _681
REMARK  281  A    between atoms: _680  and  _683
REMARK  282  A    between atoms: _683  and  _684
REMARK  283  A    between atoms: _687  and  _689
REMARK  284  A    between atoms: _689  and  _690
REMARK  285  A    between atoms: _689  and  _692
REMARK  286  A    between atoms: _695  and  _697
REMARK  287  A    between atoms: _697  and  _698
REMARK  288  A    between atoms: _697  and  _700
REMARK  289  A    between atoms: _700  and  _701
REMARK  290  A    between atoms: _704  and  _706
REMARK  291  A    between atoms: _706  and  _707
REMARK  292  A    between atoms: _706  and  _709
REMARK  293  A    between atoms: _709  and  _710
REMARK                            x       y       z     vdW  Elec       q    Type
REMARK                         _______ _______ _______ _____ _____    ______ ____
ROOT
ATOM      1  C   VAL A   1      69.725  -6.439  -0.975  0.00  0.00    +0.238 C 
ATOM      2  N   LEU A   2      71.003  -6.784  -1.064  0.00  0.00    -0.298 N 
ATOM      3  H   LEU A   2      71.734  -6.125  -0.728  0.00  0.00    +0.150 HD
ATOM      4  O   VAL A   1      68.816  -7.164  -1.391  0.00  0.00    -0.274 OA
ENDROOT
BRANCH   1   5
ATOM      5  CA  VAL A   1      69.430  -5.096  -0.324  0.00  0.00    +0.145 C 
BRANCH   5   6
ATOM      6  CB  VAL A   1      69.684  -3.926  -1.320  0.00  0.00    +0.025 C 
ATOM      7  CG2 VAL A   1      69.048  -2.602  -0.808  0.00  0.00    +0.002 C 
ATOM      8  CG1 VAL A   1      69.164  -4.259  -2.733  0.00  0.00    +0.002 C 
ENDBRANCH   5   6
BRANCH   5   9
ATOM      9  N   VAL A   1      70.255  -4.931   0.910  0.00  0.00    -0.238 NA
ATOM     10  H   VAL A   1      70.914  -4.129   0.971  0.00  0.00    +0.142 HD
ENDBRANCH   5   9
ENDBRANCH   1   5
BRANCH   2  11
ATOM     11  CA  LEU A   2      71.406  -8.083  -1.630  0.00  0.00    +0.137 C 
BRANCH  11  12
ATOM     12  C   LEU A   2      70.832  -9.247  -0.834  0.00  0.00    +0.227 C 
ATOM     13  O   LEU A   2      70.294 -10.207  -1.406  0.00  0.00    -0.286 OA
ENDBRANCH  11  12
BRANCH  11  14
ATOM     14  CB  LEU A   2      72.938  -8.169  -1.729  0.00  0.00    +0.028 C 
BRANCH  14  15
ATOM     15  CG  LEU A   2      73.579  -7.388  -2.894  0.00  0.00    +0.002 C 
ATOM     16  CD2 LEU A   2      75.099  -7.459  -2.763  0.00  0.00    +0.000 C 
ATOM     17  CD1 LEU A   2      73.139  -7.968  -4.255  0.00  0.00    +0.000 C 
ENDBRANCH  14  15
ENDBRANCH  11  14
ENDBRANCH   2  11
TORSDOF 7
REMARK  Name = ../refined-set-2016/2o4r/2o4r_pocket.pdb
REMARK  293 active torsions:
REMARK  status: ('A' for Active; 'I' for Inactive)
REMARK    1  A    between atoms: _1  and  _3
REMARK    2  A    between atoms: _3  and  _4
REMARK    3  A    between atoms: _3  and  _6
REMARK    4  A    between atoms: _6  and  _7
REMARK    5  A    between atoms: _10  and  _12
REMARK    6  A    between atoms: _12  and  _13
REMARK    7  A    between atoms: _12  and  _15
REMARK    8  A    between atoms: _15  and  _16
REMARK    9  A    between atoms: _21  and  _22
REMARK   10  A    between atoms: _24  and  _26
REMARK   11  A    between atoms: _26  and  _27
REMARK   12  A    between atoms: _26  and  _29
REMARK   13  A    between atoms: _29  and  _30
REMARK   14  A    between atoms: _34  and  _35
REMARK   15  A    between atoms: _40  and  _42
REMARK   16  A    between atoms: _42  and  _43
REMARK   17  A    between atoms: _42  and  _45
REMARK   18  A    between atoms: _45  and  _46
REMARK   19  A    between atoms: _51  and  _52
REMARK   20  A    between atoms: _54  and  _56
REMARK   21  A    between atoms: _56  and  _57
REMARK   22  A    between atoms: _56  and  _59
REMARK   23  A    between atoms: _59  and  _60
REMARK   24  A    between atoms: _66  and  _68
REMARK   25  A    between atoms: _68  and  _69
REMARK   26  A    between atoms: _68  and  _71
REMARK   27  A    between atoms: _71  and  _72
REMARK   28  A    between atoms: _78  and  _80
REMARK   29  A    between atoms: _80  and  _81
REMARK   30  A    between atoms: _80  and  _83
REMARK   31  A    between atoms: _83  and  _84
REMARK   32  A    between atoms: _84  and  _85
REMARK   33  A    between atoms: _85  and  _86
REMARK   34  A    between atoms: _95  and  _97
REMARK   35  A    between atoms: _97  and  _98
REMARK   36  A    between atoms: _97  and  _100
REMARK   37  A    between atoms: _100  and  _101
REMARK   38  A    between atoms: _101  and  _102
REMARK   39  A    between atoms: _104  and  _106
REMARK   40  A    between atoms: _106  and  _107
REMARK   41  A    between atoms: _106  and  _109
REMARK   42  A    between atoms: _109  and  _110
REMARK   43  A    between atoms: _114  and  _115
REMARK   44  A    between atoms: _120  and  _122
REMARK   45  A    between atoms: _122  and  _123
REMARK   46  A    between atoms: _122  and  _125
REMARK   47  A    between atoms: _125  and  _126
REMARK   48  A    between atoms: _131  and  _133
REMARK   49  A    between atoms: _133  and  _134
REMARK   50  A    between atoms: _133  and  _136
REMARK   51  A    between atoms: _136  and  _137
REMARK   52  A    between atoms: _140  and  _142
REMARK   53  A    between atoms: _142  and  _143
REMARK   54  A    between atoms: _146  and  _148
REMARK   55  A    between atoms: _148  and  _149
REMARK   56  A    between atoms: _148  and  _151
REMARK   57  A    between atoms: _151  and  _152
REMARK   58  A    between atoms: _155  and  _157
REMARK   59  A    between atoms: _157  and  _158
REMARK   60  A    between atoms: _157  and  _160
REMARK   61  A    between atoms: _160  and  _161
REMARK   62  A    between atoms: _164  and  _166
REMARK   63  A    between atoms: _166  and  _167
REMARK   64  A    between atoms: _166  and  _169
REMARK   65  A    between atoms: _172  and  _174
REMARK   66  A    between atoms: _174  and  _175
REMARK   67  A    between atoms: _174  and  _177
REMARK   68  A    between atoms: _177  and  _178
REMARK   69  A    between atoms: _180  and  _182
REMARK   70  A    between atoms: _182  and  _183
REMARK   71  A    between atoms: _182  and  _185
REMARK   72  A    between atoms: _185  and  _186
REMARK   73  A    between atoms: _191  and  _192
REMARK   74  A    between atoms: _194  and  _196
REMARK   75  A    between atoms: _196  and  _197
REMARK   76  A    between atoms: _196  and  _199
REMARK   77  A    between atoms: _199  and  _200
REMARK   78  A    between atoms: _202  and  _204
REMARK   79  A    between atoms: _204  and  _205
REMARK   80  A    between atoms: _204  and  _207
REMARK   81  A    between atoms: _207  and  _208
REMARK   82  A    between atoms: _211  and  _213
REMARK   83  A    between atoms: _213  and  _214
REMARK   84  A    between atoms: _213  and  _216
REMARK   85  A    between atoms: _216  and  _217
REMARK   86  A    between atoms: _217  and  _218
REMARK   87  A    between atoms: _218  and  _219
REMARK   88  A    between atoms: _219  and  _220
REMARK   89  A    between atoms: _224  and  _226
REMARK   90  A    between atoms: _226  and  _227
REMARK   91  A    between atoms: _226  and  _229
REMARK   92  A    between atoms: _232  and  _234
REMARK   93  A    between atoms: _234  and  _235
REMARK   94  A    between atoms: _238  and  _240
REMARK   95  A    between atoms: _240  and  _241
REMARK   96  A    between atoms: _240  and  _243
REMARK   97  A    between atoms: _243  and  _244
REMARK   98  A    between atoms: _247  and  _249
REMARK   99  A    between atoms: _249  and  _250
REMARK  100  A    between atoms: _249  and  _252
REMARK  101  A    between atoms: _252  and  _253
REMARK  102  A    between atoms: _253  and  _254
REMARK  103  A    between atoms: _257  and  _259
REMARK  104  A    between atoms: _259  and  _260
REMARK  105  A    between atoms: _259  and  _262
REMARK  106  A    between atoms: _265  and  _267
REMARK  107  A    between atoms: _267  and  _268
REMARK  108  A    between atoms: _267  and  _270
REMARK  109  A    between atoms: _270  and  _271
REMARK  110  A    between atoms: _274  and  _276
REMARK  111  A    between atoms: _276  and  _277
REMARK  112  A    between atoms: _276  and  _279
REMARK  113  A    between atoms: _279  and  _280
REMARK  114  A    between atoms: _280  and  _281
REMARK  115  A    between atoms: _283  and  _285
REMARK  116  A    between atoms: _285  and  _286
REMARK  117  A    between atoms: _285  and  _288
REMARK  118  A    between atoms: _288  and  _289
REMARK  119  A    between atoms: _292  and  _294
REMARK  120  A    between atoms: _294  and  _295
REMARK  121  A    between atoms: _294  and  _297
REMARK  122  A    between atoms: _297  and  _298
REMARK  123  A    between atoms: _298  and  _299
REMARK  124  A    between atoms: _299  and  _300
REMARK  125  A    between atoms: _309  and  _311
REMARK  126  A    between atoms: _311  and  _312
REMARK  127  A    between atoms: _311  and  _314
REMARK  128  A    between atoms: _314  and  _315
REMARK  129  A    between atoms: _317  and  _319
REMARK  130  A    between atoms: _319  and  _320
REMARK  131  A    between atoms: _319  and  _322
REMARK  132  A    between atoms: _322  and  _323
REMARK  133  A    between atoms: _328  and  _330
REMARK  134  A    between atoms: _330  and  _331
REMARK  135  A    between atoms: _330  and  _333
REMARK  136  A    between atoms: _333  and  _334
REMARK  137  A    between atoms: _334  and  _335
REMARK  138  A    between atoms: _340  and  _342
REMARK  139  A    between atoms: _342  and  _343
REMARK  140  A    between atoms: _342  and  _345
REMARK  141  A    between atoms: _345  and  _346
REMARK  142  A    between atoms: _348  and  _350
REMARK  143  A    between atoms: _350  and  _351
REMARK  144  A    between atoms: _350  and  _353
REMARK  145  A    between atoms: _353  and  _354
REMARK  146  A    between atoms: _360  and  _362
REMARK  147  A    between atoms: _362  and  _363
REMARK  148  A    between atoms: _362  and  _365
REMARK  149  A    between atoms: _365  and  _366
REMARK  150  A    between atoms: _368  and  _370
REMARK  151  A    between atoms: _370  and  _371
REMARK  152  A    between atoms: _370  and  _373
REMARK  153  A    between atoms: _373  and  _374
REMARK  154  A    between atoms: _384  and  _386
REMARK  155  A    between atoms: _386  and  _387
REMARK  156  A    between atoms: _386  and  _389
REMARK  157  A    between atoms: _389  and  _390
REMARK  158  A    between atoms: _393  and  _395
REMARK  159  A    between atoms: _395  and  _396
REMARK  160  A    between atoms: _395  and  _398
REMARK  161  A    between atoms: _400  and  _402
REMARK  162  A    between atoms: _402  and  _403
REMARK  163  A    between atoms: _402  and  _405
REMARK  164  A    between atoms: _405  and  _406
REMARK  165  A    between atoms: _411  and  _412
REMARK  166  A    between atoms: _414  and  _416
REMARK  167  A    between atoms: _416  and  _417
REMARK  168  A    between atoms: _416  and  _419
REMARK  169  A    between atoms: _419  and  _420
REMARK  170  A    between atoms: _420  and  _421
REMARK  171  A    between atoms: _421  and  _422
REMARK  172  A    between atoms: _422  and  _423
REMARK  173  A    between atoms: _427  and  _429
REMARK  174  A    between atoms: _429  and  _430
REMARK  175  A    between atoms: _429  and  _432
REMARK  176  A    between atoms: _432  and  _433
REMARK  177  A    between atoms: _438  and  _439
REMARK  178  A    between atoms: _441  and  _443
REMARK  179  A    between atoms: _443  and  _444
REMARK  180  A    between atoms: _443  and  _446
REMARK  181  A    between atoms: _446  and  _447
REMARK  182  A    between atoms: _450  and  _452
REMARK  183  A    between atoms: _452  and  _453
REMARK  184  A    between atoms: _452  and  _455
REMARK  185  A    between atoms: _458  and  _460
REMARK  186  A    between atoms: _460  and  _461
REMARK  187  A    between atoms: _460  and  _463
REMARK  188  A    between atoms: _463  and  _464
REMARK  189  A    between atoms: _467  and  _469
REMARK  190  A    between atoms: _469  and  _470
REMARK  191  A    between atoms: _469  and  _472
REMARK  192  A    between atoms: _475  and  _477
REMARK  193  A    between atoms: _477  and  _478
REMARK  194  A    between atoms: _477  and  _480
REMARK  195  A    between atoms: _480  and  _481
REMARK  196  A    between atoms: _483  and  _485
REMARK  197  A    between atoms: _485  and  _486
REMARK  198  A    between atoms: _485  and  _488
REMARK  199  A    between atoms: _488  and  _489
REMARK  200  A    between atoms: _489  and  _490
REMARK  201  A    between atoms: _490  and  _491
REMARK  202  A    between atoms: _491  and  _492
REMARK  203  A    between atoms: _496  and  _498
REMARK  204  A    between atoms: _498  and  _499
REMARK  205  A    between atoms: _502  and  _504
REMARK  206  A    between atoms: _504  and  _505
REMARK  207  A    between atoms: _507  and  _509
REMARK  208  A    between atoms: _509  and  _510
REMARK  209  A    between atoms: _509  and  _512
REMARK  210  A    between atoms: _512  and  _513
REMARK  211  A    between atoms: _518  and  _520
REMARK  212  A    between atoms: _520  and  _521
REMARK  213  A    between atoms: _520  and  _523
REMARK  214  A    between atoms: _523  and  _524
REMARK  215  A    between atoms: _527  and  _529
REMARK  216  A    between atoms: _529  and  _530
REMARK  217  A    between atoms: _529  and  _532
REMARK  218  A    between atoms: _532  and  _533
REMARK  219  A    between atoms: _536  and  _538
REMARK  220  A    between atoms: _538  and  _539
REMARK  221  A    between atoms: _538  and  _541
REMARK  222  A    between atoms: _541  and  _542
REMARK  223  A    between atoms: _545  and  _547
REMARK  224  A    between atoms: _547  and  _548
REMARK  225  A    between atoms: _547  and  _550
REMARK  226  A    between atoms: _550  and  _551
REMARK  227  A    between atoms: _554  and  _556
REMARK  228  A    between atoms: _556  and  _557
REMARK  229  A    between atoms: _556  and  _559
REMARK  230  A    between atoms: _559  and  _560
REMARK  231  A    between atoms: _560  and  _561
REMARK  232  A    between atoms: _566  and  _568
REMARK  233  A    between atoms: _568  and  _569
REMARK  234  A    between atoms: _568  and  _571
REMARK  235  A    between atoms: _571  and  _572
REMARK  236  A    between atoms: _577  and  _579
REMARK  237  A    between atoms: _579  and  _580
REMARK  238  A    between atoms: _579  and  _582
REMARK  239  A    between atoms: _582  and  _583
REMARK  240  A    between atoms: _585  and  _587
REMARK  241  A    between atoms: _587  and  _588
REMARK  242  A    between atoms: _587  and  _590
REMARK  243  A    between atoms: _590  and  _591
REMARK  244  A    between atoms: _591  and  _592
REMARK  245  A    between atoms: _597  and  _599
REMARK  246  A    between atoms: _599  and  _600
REMARK  247  A    between atoms: _599  and  _602
REMARK  248  A    between atoms: _602  and  _603
REMARK  249  A    between atoms: _608  and  _609
REMARK  250  A    between atoms: _611  and  _613
REMARK  251  A    between atoms: _613  and  _614
REMARK  252  A    between atoms: _613  and  _616
REMARK  253  A    between atoms: _616  and  _617
REMARK  254  A    between atoms: _617  and  _618
REMARK  255  A    between atoms: _618  and  _619
REMARK  256  A    between atoms: _628  and  _630
REMARK  257  A    between atoms: _630  and  _631
REMARK  258  A    between atoms: _630  and  _633
REMARK  259  A    between atoms: _633  and  _634
REMARK  260  A    between atoms: _637  and  _639
REMARK  261  A    between atoms: _639  and  _640
REMARK  262  A    between atoms: _639  and  _642
REMARK  263  A    between atoms: _642  and  _643
REMARK  264  A    between atoms: _645  and  _647
REMARK  265  A    between atoms: _647  and  _648
REMARK  266  A    between atoms: _647  and  _650
REMARK  267  A    between atoms: _650  and  _651
REMARK  268  A    between atoms: _656  and  _658
REMARK  269  A    between atoms: _658  and  _659
REMARK  270  A    between atoms: _658  and  _661
REMARK  271  A    between atoms: _661  and  _662
REMARK  272  A    between atoms: _662  and  _663
REMARK  273  A    between atoms: _663  and  _664
REMARK  274  A    between atoms: _664  and  _665
REMARK  275  A    between atoms: _669  and  _671
REMARK  276  A    between atoms: _671  and  _672
REMARK  277  A    between atoms: _671  and  _674
REMARK  278  A    between atoms: _674  and  _675
REMARK  279  A    between atoms: _678  and  _680
REMARK  280  A    between atoms: _680  and  _681
REMARK  281  A    between atoms: _680  and  _683
REMARK  282  A    between atoms: _683  and  _684
REMARK  283  A    between atoms: _687  and  _689
REMARK  284  A    between atoms: _689  and  _690
REMARK  285  A    between atoms: _689  and  _692
REMARK  286  A    between atoms: _695  and  _697
REMARK  287  A    between atoms: _697  and  _698
REMARK  288  A    between atoms: _697  and  _700
REMARK  289  A    between atoms: _700  and  _701
REMARK  290  A    between atoms: _704  and  _706
REMARK  291  A    between atoms: _706  and  _707
REMARK  292  A    between atoms: _706  and  _709
REMARK  293  A    between atoms: _709  and  _710
REMARK                            x       y       z     vdW  Elec       q    Type
REMARK                         _______ _______ _______ _____ _____    ______ ____
ROOT
ATOM      1  CB  PHE A   1      66.170  -7.821  -3.436  0.00  0.00    +0.051 C 
ENDROOT
BRANCH   1   2
ATOM      2  CG  PHE A   1      65.229  -6.795  -2.881  0.00  0.00    -0.020 A 
ATOM      3  CD2 PHE A   1      63.913  -7.130  -2.561  0.00  0.00    -0.004 A 
ATOM      4  CE2 PHE A   1      63.034  -6.161  -2.016  0.00  0.00    -0.000 A 
ATOM      5  CZ  PHE A   1      63.488  -4.868  -1.792  0.00  0.00    -0.000 A 
ATOM      6  CE1 PHE A   1      64.794  -4.534  -2.130  0.00  0.00    -0.000 A 
ATOM      7  CD1 PHE A   1      65.658  -5.499  -2.644  0.00  0.00    -0.004 A 
ENDBRANCH   1   2
BRANCH   1   8
ATOM      8  CA  PHE A   1      66.164  -9.142  -2.654  0.00  0.00    +0.137 C 
BRANCH   8   9
ATOM      9  N   PHE A   1      66.687  -8.962  -1.298  0.00  0.00    -0.239 NA
ATOM     10  H   PHE A   1      67.525  -8.362  -1.156  0.00  0.00    +0.142 HD
ENDBRANCH   8   9
BRANCH   8  11
ATOM     11  C   PHE A   1      66.856 -10.243  -3.440  0.00  0.00    +0.224 C 
ATOM     12  O   PHE A   1      66.291 -10.765  -4.392  0.00  0.00    -0.287 OA
ENDBRANCH   8  11
ENDBRANCH   1   8
TORSDOF 4
REMARK  Name = ../refined-set-2016/2o4r/2o4r_pocket.pdb
REMARK  293 active torsions:
REMARK  status: ('A' for Active; 'I' for Inactive)
REMARK    1  A    between atoms: _1  and  _3
REMARK    2  A    between atoms: _3  and  _4
REMARK    3  A    between atoms: _3  and  _6
REMARK    4  A    between atoms: _6  and  _7
REMARK    5  A    between atoms: _10  and  _12
REMARK    6  A    between atoms: _12  and  _13
REMARK    7  A    between atoms: _12  and  _15
REMARK    8  A    between atoms: _15  and  _16
REMARK    9  A    between atoms: _21  and  _22
REMARK   10  A    between atoms: _24  and  _26
REMARK   11  A    between atoms: _26  and  _27
REMARK   12  A    between atoms: _26  and  _29
REMARK   13  A    between atoms: _29  and  _30
REMARK   14  A    between atoms: _34  and  _35
REMARK   15  A    between atoms: _40  and  _42
REMARK   16  A    between atoms: _42  and  _43
REMARK   17  A    between atoms: _42  and  _45
REMARK   18  A    between atoms: _45  and  _46
REMARK   19  A    between atoms: _51  and  _52
REMARK   20  A    between atoms: _54  and  _56
REMARK   21  A    between atoms: _56  and  _57
REMARK   22  A    between atoms: _56  and  _59
REMARK   23  A    between atoms: _59  and  _60
REMARK   24  A    between atoms: _66  and  _68
REMARK   25  A    between atoms: _68  and  _69
REMARK   26  A    between atoms: _68  and  _71
REMARK   27  A    between atoms: _71  and  _72
REMARK   28  A    between atoms: _78  and  _80
REMARK   29  A    between atoms: _80  and  _81
REMARK   30  A    between atoms: _80  and  _83
REMARK   31  A    between atoms: _83  and  _84
REMARK   32  A    between atoms: _84  and  _85
REMARK   33  A    between atoms: _85  and  _86
REMARK   34  A    between atoms: _95  and  _97
REMARK   35  A    between atoms: _97  and  _98
REMARK   36  A    between atoms: _97  and  _100
REMARK   37  A    between atoms: _100  and  _101
REMARK   38  A    between atoms: _101  and  _102
REMARK   39  A    between atoms: _104  and  _106
REMARK   40  A    between atoms: _106  and  _107
REMARK   41  A    between atoms: _106  and  _109
REMARK   42  A    between atoms: _109  and  _110
REMARK   43  A    between atoms: _114  and  _115
REMARK   44  A    between atoms: _120  and  _122
REMARK   45  A    between atoms: _122  and  _123
REMARK   46  A    between atoms: _122  and  _125
REMARK   47  A    between atoms: _125  and  _126
REMARK   48  A    between atoms: _131  and  _133
REMARK   49  A    between atoms: _133  and  _134
REMARK   50  A    between atoms: _133  and  _136
REMARK   51  A    between atoms: _136  and  _137
REMARK   52  A    between atoms: _140  and  _142
REMARK   53  A    between atoms: _142  and  _143
REMARK   54  A    between atoms: _146  and  _148
REMARK   55  A    between atoms: _148  and  _149
REMARK   56  A    between atoms: _148  and  _151
REMARK   57  A    between atoms: _151  and  _152
REMARK   58  A    between atoms: _155  and  _157
REMARK   59  A    between atoms: _157  and  _158
REMARK   60  A    between atoms: _157  and  _160
REMARK   61  A    between atoms: _160  and  _161
REMARK   62  A    between atoms: _164  and  _166
REMARK   63  A    between atoms: _166  and  _167
REMARK   64  A    between atoms: _166  and  _169
REMARK   65  A    between atoms: _172  and  _174
REMARK   66  A    between atoms: _174  and  _175
REMARK   67  A    between atoms: _174  and  _177
REMARK   68  A    between atoms: _177  and  _178
REMARK   69  A    between atoms: _180  and  _182
REMARK   70  A    between atoms: _182  and  _183
REMARK   71  A    between atoms: _182  and  _185
REMARK   72  A    between atoms: _185  and  _186
REMARK   73  A    between atoms: _191  and  _192
REMARK   74  A    between atoms: _194  and  _196
REMARK   75  A    between atoms: _196  and  _197
REMARK   76  A    between atoms: _196  and  _199
REMARK   77  A    between atoms: _199  and  _200
REMARK   78  A    between atoms: _202  and  _204
REMARK   79  A    between atoms: _204  and  _205
REMARK   80  A    between atoms: _204  and  _207
REMARK   81  A    between atoms: _207  and  _208
REMARK   82  A    between atoms: _211  and  _213
REMARK   83  A    between atoms: _213  and  _214
REMARK   84  A    between atoms: _213  and  _216
REMARK   85  A    between atoms: _216  and  _217
REMARK   86  A    between atoms: _217  and  _218
REMARK   87  A    between atoms: _218  and  _219
REMARK   88  A    between atoms: _219  and  _220
REMARK   89  A    between atoms: _224  and  _226
REMARK   90  A    between atoms: _226  and  _227
REMARK   91  A    between atoms: _226  and  _229
REMARK   92  A    between atoms: _232  and  _234
REMARK   93  A    between atoms: _234  and  _235
REMARK   94  A    between atoms: _238  and  _240
REMARK   95  A    between atoms: _240  and  _241
REMARK   96  A    between atoms: _240  and  _243
REMARK   97  A    between atoms: _243  and  _244
REMARK   98  A    between atoms: _247  and  _249
REMARK   99  A    between atoms: _249  and  _250
REMARK  100  A    between atoms: _249  and  _252
REMARK  101  A    between atoms: _252  and  _253
REMARK  102  A    between atoms: _253  and  _254
REMARK  103  A    between atoms: _257  and  _259
REMARK  104  A    between atoms: _259  and  _260
REMARK  105  A    between atoms: _259  and  _262
REMARK  106  A    between atoms: _265  and  _267
REMARK  107  A    between atoms: _267  and  _268
REMARK  108  A    between atoms: _267  and  _270
REMARK  109  A    between atoms: _270  and  _271
REMARK  110  A    between atoms: _274  and  _276
REMARK  111  A    between atoms: _276  and  _277
REMARK  112  A    between atoms: _276  and  _279
REMARK  113  A    between atoms: _279  and  _280
REMARK  114  A    between atoms: _280  and  _281
REMARK  115  A    between atoms: _283  and  _285
REMARK  116  A    between atoms: _285  and  _286
REMARK  117  A    between atoms: _285  and  _288
REMARK  118  A    between atoms: _288  and  _289
REMARK  119  A    between atoms: _292  and  _294
REMARK  120  A    between atoms: _294  and  _295
REMARK  121  A    between atoms: _294  and  _297
REMARK  122  A    between atoms: _297  and  _298
REMARK  123  A    between atoms: _298  and  _299
REMARK  124  A    between atoms: _299  and  _300
REMARK  125  A    between atoms: _309  and  _311
REMARK  126  A    between atoms: _311  and  _312
REMARK  127  A    between atoms: _311  and  _314
REMARK  128  A    between atoms: _314  and  _315
REMARK  129  A    between atoms: _317  and  _319
REMARK  130  A    between atoms: _319  and  _320
REMARK  131  A    between atoms: _319  and  _322
REMARK  132  A    between atoms: _322  and  _323
REMARK  133  A    between atoms: _328  and  _330
REMARK  134  A    between atoms: _330  and  _331
REMARK  135  A    between atoms: _330  and  _333
REMARK  136  A    between atoms: _333  and  _334
REMARK  137  A    between atoms: _334  and  _335
REMARK  138  A    between atoms: _340  and  _342
REMARK  139  A    between atoms: _342  and  _343
REMARK  140  A    between atoms: _342  and  _345
REMARK  141  A    between atoms: _345  and  _346
REMARK  142  A    between atoms: _348  and  _350
REMARK  143  A    between atoms: _350  and  _351
REMARK  144  A    between atoms: _350  and  _353
REMARK  145  A    between atoms: _353  and  _354
REMARK  146  A    between atoms: _360  and  _362
REMARK  147  A    between atoms: _362  and  _363
REMARK  148  A    between atoms: _362  and  _365
REMARK  149  A    between atoms: _365  and  _366
REMARK  150  A    between atoms: _368  and  _370
REMARK  151  A    between atoms: _370  and  _371
REMARK  152  A    between atoms: _370  and  _373
REMARK  153  A    between atoms: _373  and  _374
REMARK  154  A    between atoms: _384  and  _386
REMARK  155  A    between atoms: _386  and  _387
REMARK  156  A    between atoms: _386  and  _389
REMARK  157  A    between atoms: _389  and  _390
REMARK  158  A    between atoms: _393  and  _395
REMARK  159  A    between atoms: _395  and  _396
REMARK  160  A    between atoms: _395  and  _398
REMARK  161  A    between atoms: _400  and  _402
REMARK  162  A    between atoms: _402  and  _403
REMARK  163  A    between atoms: _402  and  _405
REMARK  164  A    between atoms: _405  and  _406
REMARK  165  A    between atoms: _411  and  _412
REMARK  166  A    between atoms: _414  and  _416
REMARK  167  A    between atoms: _416  and  _417
REMARK  168  A    between atoms: _416  and  _419
REMARK  169  A    between atoms: _419  and  _420
REMARK  170  A    between atoms: _420  and  _421
REMARK  171  A    between atoms: _421  and  _422
REMARK  172  A    between atoms: _422  and  _423
REMARK  173  A    between atoms: _427  and  _429
REMARK  174  A    between atoms: _429  and  _430
REMARK  175  A    between atoms: _429  and  _432
REMARK  176  A    between atoms: _432  and  _433
REMARK  177  A    between atoms: _438  and  _439
REMARK  178  A    between atoms: _441  and  _443
REMARK  179  A    between atoms: _443  and  _444
REMARK  180  A    between atoms: _443  and  _446
REMARK  181  A    between atoms: _446  and  _447
REMARK  182  A    between atoms: _450  and  _452
REMARK  183  A    between atoms: _452  and  _453
REMARK  184  A    between atoms: _452  and  _455
REMARK  185  A    between atoms: _458  and  _460
REMARK  186  A    between atoms: _460  and  _461
REMARK  187  A    between atoms: _460  and  _463
REMARK  188  A    between atoms: _463  and  _464
REMARK  189  A    between atoms: _467  and  _469
REMARK  190  A    between atoms: _469  and  _470
REMARK  191  A    between atoms: _469  and  _472
REMARK  192  A    between atoms: _475  and  _477
REMARK  193  A    between atoms: _477  and  _478
REMARK  194  A    between atoms: _477  and  _480
REMARK  195  A    between atoms: _480  and  _481
REMARK  196  A    between atoms: _483  and  _485
REMARK  197  A    between atoms: _485  and  _486
REMARK  198  A    between atoms: _485  and  _488
REMARK  199  A    between atoms: _488  and  _489
REMARK  200  A    between atoms: _489  and  _490
REMARK  201  A    between atoms: _490  and  _491
REMARK  202  A    between atoms: _491  and  _492
REMARK  203  A    between atoms: _496  and  _498
REMARK  204  A    between atoms: _498  and  _499
REMARK  205  A    between atoms: _502  and  _504
REMARK  206  A    between atoms: _504  and  _505
REMARK  207  A    between atoms: _507  and  _509
REMARK  208  A    between atoms: _509  and  _510
REMARK  209  A    between atoms: _509  and  _512
REMARK  210  A    between atoms: _512  and  _513
REMARK  211  A    between atoms: _518  and  _520
REMARK  212  A    between atoms: _520  and  _521
REMARK  213  A    between atoms: _520  and  _523
REMARK  214  A    between atoms: _523  and  _524
REMARK  215  A    between atoms: _527  and  _529
REMARK  216  A    between atoms: _529  and  _530
REMARK  217  A    between atoms: _529  and  _532
REMARK  218  A    between atoms: _532  and  _533
REMARK  219  A    between atoms: _536  and  _538
REMARK  220  A    between atoms: _538  and  _539
REMARK  221  A    between atoms: _538  and  _541
REMARK  222  A    between atoms: _541  and  _542
REMARK  223  A    between atoms: _545  and  _547
REMARK  224  A    between atoms: _547  and  _548
REMARK  225  A    between atoms: _547  and  _550
REMARK  226  A    between atoms: _550  and  _551
REMARK  227  A    between atoms: _554  and  _556
REMARK  228  A    between atoms: _556  and  _557
REMARK  229  A    between atoms: _556  and  _559
REMARK  230  A    between atoms: _559  and  _560
REMARK  231  A    between atoms: _560  and  _561
REMARK  232  A    between atoms: _566  and  _568
REMARK  233  A    between atoms: _568  and  _569
REMARK  234  A    between atoms: _568  and  _571
REMARK  235  A    between atoms: _571  and  _572
REMARK  236  A    between atoms: _577  and  _579
REMARK  237  A    between atoms: _579  and  _580
REMARK  238  A    between atoms: _579  and  _582
REMARK  239  A    between atoms: _582  and  _583
REMARK  240  A    between atoms: _585  and  _587
REMARK  241  A    between atoms: _587  and  _588
REMARK  242  A    between atoms: _587  and  _590
REMARK  243  A    between atoms: _590  and  _591
REMARK  244  A    between atoms: _591  and  _592
REMARK  245  A    between atoms: _597  and  _599
REMARK  246  A    between atoms: _599  and  _600
REMARK  247  A    between atoms: _599  and  _602
REMARK  248  A    between atoms: _602  and  _603
REMARK  249  A    between atoms: _608  and  _609
REMARK  250  A    between atoms: _611  and  _613
REMARK  251  A    between atoms: _613  and  _614
REMARK  252  A    between atoms: _613  and  _616
REMARK  253  A    between atoms: _616  and  _617
REMARK  254  A    between atoms: _617  and  _618
REMARK  255  A    between atoms: _618  and  _619
REMARK  256  A    between atoms: _628  and  _630
REMARK  257  A    between atoms: _630  and  _631
REMARK  258  A    between atoms: _630  and  _633
REMARK  259  A    between atoms: _633  and  _634
REMARK  260  A    between atoms: _637  and  _639
REMARK  261  A    between atoms: _639  and  _640
REMARK  262  A    between atoms: _639  and  _642
REMARK  263  A    between atoms: _642  and  _643
REMARK  264  A    between atoms: _645  and  _647
REMARK  265  A    between atoms: _647  and  _648
REMARK  266  A    between atoms: _647  and  _650
REMARK  267  A    between atoms: _650  and  _651
REMARK  268  A    between atoms: _656  and  _658
REMARK  269  A    between atoms: _658  and  _659
REMARK  270  A    between atoms: _658  and  _661
REMARK  271  A    between atoms: _661  and  _662
REMARK  272  A    between atoms: _662  and  _663
REMARK  273  A    between atoms: _663  and  _664
REMARK  274  A    between atoms: _664  and  _665
REMARK  275  A    between atoms: _669  and  _671
REMARK  276  A    between atoms: _671  and  _672
REMARK  277  A    between atoms: _671  and  _674
REMARK  278  A    between atoms: _674  and  _675
REMARK  279  A    between atoms: _678  and  _680
REMARK  280  A    between atoms: _680  and  _681
REMARK  281  A    between atoms: _680  and  _683
REMARK  282  A    between atoms: _683  and  _684
REMARK  283  A    between atoms: _687  and  _689
REMARK  284  A    between atoms: _689  and  _690
REMARK  285  A    between atoms: _689  and  _692
REMARK  286  A    between atoms: _695  and  _697
REMARK  287  A    between atoms: _697  and  _698
REMARK  288  A    between atoms: _697  and  _700
REMARK  289  A    between atoms: _700  and  _701
REMARK  290  A    between atoms: _704  and  _706
REMARK  291  A    between atoms: _706  and  _707
REMARK  292  A    between atoms: _706  and  _709
REMARK  293  A    between atoms: _709  and  _710
REMARK                            x       y       z     vdW  Elec       q    Type
REMARK                         _______ _______ _______ _____ _____    ______ ____
ROOT
ATOM      1  O   HOH     1      54.347   6.361   4.871  0.00  0.00    +0.000 OA
ENDROOT
TORSDOF 0
REMARK  Name = ../refined-set-2016/2o4r/2o4r_pocket.pdb
REMARK  293 active torsions:
REMARK  status: ('A' for Active; 'I' for Inactive)
REMARK    1  A    between atoms: _1  and  _3
REMARK    2  A    between atoms: _3  and  _4
REMARK    3  A    between atoms: _3  and  _6
REMARK    4  A    between atoms: _6  and  _7
REMARK    5  A    between atoms: _10  and  _12
REMARK    6  A    between atoms: _12  and  _13
REMARK    7  A    between atoms: _12  and  _15
REMARK    8  A    between atoms: _15  and  _16
REMARK    9  A    between atoms: _21  and  _22
REMARK   10  A    between atoms: _24  and  _26
REMARK   11  A    between atoms: _26  and  _27
REMARK   12  A    between atoms: _26  and  _29
REMARK   13  A    between atoms: _29  and  _30
REMARK   14  A    between atoms: _34  and  _35
REMARK   15  A    between atoms: _40  and  _42
REMARK   16  A    between atoms: _42  and  _43
REMARK   17  A    between atoms: _42  and  _45
REMARK   18  A    between atoms: _45  and  _46
REMARK   19  A    between atoms: _51  and  _52
REMARK   20  A    between atoms: _54  and  _56
REMARK   21  A    between atoms: _56  and  _57
REMARK   22  A    between atoms: _56  and  _59
REMARK   23  A    between atoms: _59  and  _60
REMARK   24  A    between atoms: _66  and  _68
REMARK   25  A    between atoms: _68  and  _69
REMARK   26  A    between atoms: _68  and  _71
REMARK   27  A    between atoms: _71  and  _72
REMARK   28  A    between atoms: _78  and  _80
REMARK   29  A    between atoms: _80  and  _81
REMARK   30  A    between atoms: _80  and  _83
REMARK   31  A    between atoms: _83  and  _84
REMARK   32  A    between atoms: _84  and  _85
REMARK   33  A    between atoms: _85  and  _86
REMARK   34  A    between atoms: _95  and  _97
REMARK   35  A    between atoms: _97  and  _98
REMARK   36  A    between atoms: _97  and  _100
REMARK   37  A    between atoms: _100  and  _101
REMARK   38  A    between atoms: _101  and  _102
REMARK   39  A    between atoms: _104  and  _106
REMARK   40  A    between atoms: _106  and  _107
REMARK   41  A    between atoms: _106  and  _109
REMARK   42  A    between atoms: _109  and  _110
REMARK   43  A    between atoms: _114  and  _115
REMARK   44  A    between atoms: _120  and  _122
REMARK   45  A    between atoms: _122  and  _123
REMARK   46  A    between atoms: _122  and  _125
REMARK   47  A    between atoms: _125  and  _126
REMARK   48  A    between atoms: _131  and  _133
REMARK   49  A    between atoms: _133  and  _134
REMARK   50  A    between atoms: _133  and  _136
REMARK   51  A    between atoms: _136  and  _137
REMARK   52  A    between atoms: _140  and  _142
REMARK   53  A    between atoms: _142  and  _143
REMARK   54  A    between atoms: _146  and  _148
REMARK   55  A    between atoms: _148  and  _149
REMARK   56  A    between atoms: _148  and  _151
REMARK   57  A    between atoms: _151  and  _152
REMARK   58  A    between atoms: _155  and  _157
REMARK   59  A    between atoms: _157  and  _158
REMARK   60  A    between atoms: _157  and  _160
REMARK   61  A    between atoms: _160  and  _161
REMARK   62  A    between atoms: _164  and  _166
REMARK   63  A    between atoms: _166  and  _167
REMARK   64  A    between atoms: _166  and  _169
REMARK   65  A    between atoms: _172  and  _174
REMARK   66  A    between atoms: _174  and  _175
REMARK   67  A    between atoms: _174  and  _177
REMARK   68  A    between atoms: _177  and  _178
REMARK   69  A    between atoms: _180  and  _182
REMARK   70  A    between atoms: _182  and  _183
REMARK   71  A    between atoms: _182  and  _185
REMARK   72  A    between atoms: _185  and  _186
REMARK   73  A    between atoms: _191  and  _192
REMARK   74  A    between atoms: _194  and  _196
REMARK   75  A    between atoms: _196  and  _197
REMARK   76  A    between atoms: _196  and  _199
REMARK   77  A    between atoms: _199  and  _200
REMARK   78  A    between atoms: _202  and  _204
REMARK   79  A    between atoms: _204  and  _205
REMARK   80  A    between atoms: _204  and  _207
REMARK   81  A    between atoms: _207  and  _208
REMARK   82  A    between atoms: _211  and  _213
REMARK   83  A    between atoms: _213  and  _214
REMARK   84  A    between atoms: _213  and  _216
REMARK   85  A    between atoms: _216  and  _217
REMARK   86  A    between atoms: _217  and  _218
REMARK   87  A    between atoms: _218  and  _219
REMARK   88  A    between atoms: _219  and  _220
REMARK   89  A    between atoms: _224  and  _226
REMARK   90  A    between atoms: _226  and  _227
REMARK   91  A    between atoms: _226  and  _229
REMARK   92  A    between atoms: _232  and  _234
REMARK   93  A    between atoms: _234  and  _235
REMARK   94  A    between atoms: _238  and  _240
REMARK   95  A    between atoms: _240  and  _241
REMARK   96  A    between atoms: _240  and  _243
REMARK   97  A    between atoms: _243  and  _244
REMARK   98  A    between atoms: _247  and  _249
REMARK   99  A    between atoms: _249  and  _250
REMARK  100  A    between atoms: _249  and  _252
REMARK  101  A    between atoms: _252  and  _253
REMARK  102  A    between atoms: _253  and  _254
REMARK  103  A    between atoms: _257  and  _259
REMARK  104  A    between atoms: _259  and  _260
REMARK  105  A    between atoms: _259  and  _262
REMARK  106  A    between atoms: _265  and  _267
REMARK  107  A    between atoms: _267  and  _268
REMARK  108  A    between atoms: _267  and  _270
REMARK  109  A    between atoms: _270  and  _271
REMARK  110  A    between atoms: _274  and  _276
REMARK  111  A    between atoms: _276  and  _277
REMARK  112  A    between atoms: _276  and  _279
REMARK  113  A    between atoms: _279  and  _280
REMARK  114  A    between atoms: _280  and  _281
REMARK  115  A    between atoms: _283  and  _285
REMARK  116  A    between atoms: _285  and  _286
REMARK  117  A    between atoms: _285  and  _288
REMARK  118  A    between atoms: _288  and  _289
REMARK  119  A    between atoms: _292  and  _294
REMARK  120  A    between atoms: _294  and  _295
REMARK  121  A    between atoms: _294  and  _297
REMARK  122  A    between atoms: _297  and  _298
REMARK  123  A    between atoms: _298  and  _299
REMARK  124  A    between atoms: _299  and  _300
REMARK  125  A    between atoms: _309  and  _311
REMARK  126  A    between atoms: _311  and  _312
REMARK  127  A    between atoms: _311  and  _314
REMARK  128  A    between atoms: _314  and  _315
REMARK  129  A    between atoms: _317  and  _319
REMARK  130  A    between atoms: _319  and  _320
REMARK  131  A    between atoms: _319  and  _322
REMARK  132  A    between atoms: _322  and  _323
REMARK  133  A    between atoms: _328  and  _330
REMARK  134  A    between atoms: _330  and  _331
REMARK  135  A    between atoms: _330  and  _333
REMARK  136  A    between atoms: _333  and  _334
REMARK  137  A    between atoms: _334  and  _335
REMARK  138  A    between atoms: _340  and  _342
REMARK  139  A    between atoms: _342  and  _343
REMARK  140  A    between atoms: _342  and  _345
REMARK  141  A    between atoms: _345  and  _346
REMARK  142  A    between atoms: _348  and  _350
REMARK  143  A    between atoms: _350  and  _351
REMARK  144  A    between atoms: _350  and  _353
REMARK  145  A    between atoms: _353  and  _354
REMARK  146  A    between atoms: _360  and  _362
REMARK  147  A    between atoms: _362  and  _363
REMARK  148  A    between atoms: _362  and  _365
REMARK  149  A    between atoms: _365  and  _366
REMARK  150  A    between atoms: _368  and  _370
REMARK  151  A    between atoms: _370  and  _371
REMARK  152  A    between atoms: _370  and  _373
REMARK  153  A    between atoms: _373  and  _374
REMARK  154  A    between atoms: _384  and  _386
REMARK  155  A    between atoms: _386  and  _387
REMARK  156  A    between atoms: _386  and  _389
REMARK  157  A    between atoms: _389  and  _390
REMARK  158  A    between atoms: _393  and  _395
REMARK  159  A    between atoms: _395  and  _396
REMARK  160  A    between atoms: _395  and  _398
REMARK  161  A    between atoms: _400  and  _402
REMARK  162  A    between atoms: _402  and  _403
REMARK  163  A    between atoms: _402  and  _405
REMARK  164  A    between atoms: _405  and  _406
REMARK  165  A    between atoms: _411  and  _412
REMARK  166  A    between atoms: _414  and  _416
REMARK  167  A    between atoms: _416  and  _417
REMARK  168  A    between atoms: _416  and  _419
REMARK  169  A    between atoms: _419  and  _420
REMARK  170  A    between atoms: _420  and  _421
REMARK  171  A    between atoms: _421  and  _422
REMARK  172  A    between atoms: _422  and  _423
REMARK  173  A    between atoms: _427  and  _429
REMARK  174  A    between atoms: _429  and  _430
REMARK  175  A    between atoms: _429  and  _432
REMARK  176  A    between atoms: _432  and  _433
REMARK  177  A    between atoms: _438  and  _439
REMARK  178  A    between atoms: _441  and  _443
REMARK  179  A    between atoms: _443  and  _444
REMARK  180  A    between atoms: _443  and  _446
REMARK  181  A    between atoms: _446  and  _447
REMARK  182  A    between atoms: _450  and  _452
REMARK  183  A    between atoms: _452  and  _453
REMARK  184  A    between atoms: _452  and  _455
REMARK  185  A    between atoms: _458  and  _460
REMARK  186  A    between atoms: _460  and  _461
REMARK  187  A    between atoms: _460  and  _463
REMARK  188  A    between atoms: _463  and  _464
REMARK  189  A    between atoms: _467  and  _469
REMARK  190  A    between atoms: _469  and  _470
REMARK  191  A    between atoms: _469  and  _472
REMARK  192  A    between atoms: _475  and  _477
REMARK  193  A    between atoms: _477  and  _478
REMARK  194  A    between atoms: _477  and  _480
REMARK  195  A    between atoms: _480  and  _481
REMARK  196  A    between atoms: _483  and  _485
REMARK  197  A    between atoms: _485  and  _486
REMARK  198  A    between atoms: _485  and  _488
REMARK  199  A    between atoms: _488  and  _489
REMARK  200  A    between atoms: _489  and  _490
REMARK  201  A    between atoms: _490  and  _491
REMARK  202  A    between atoms: _491  and  _492
REMARK  203  A    between atoms: _496  and  _498
REMARK  204  A    between atoms: _498  and  _499
REMARK  205  A    between atoms: _502  and  _504
REMARK  206  A    between atoms: _504  and  _505
REMARK  207  A    between atoms: _507  and  _509
REMARK  208  A    between atoms: _509  and  _510
REMARK  209  A    between atoms: _509  and  _512
REMARK  210  A    between atoms: _512  and  _513
REMARK  211  A    between atoms: _518  and  _520
REMARK  212  A    between atoms: _520  and  _521
REMARK  213  A    between atoms: _520  and  _523
REMARK  214  A    between atoms: _523  and  _524
REMARK  215  A    between atoms: _527  and  _529
REMARK  216  A    between atoms: _529  and  _530
REMARK  217  A    between atoms: _529  and  _532
REMARK  218  A    between atoms: _532  and  _533
REMARK  219  A    between atoms: _536  and  _538
REMARK  220  A    between atoms: _538  and  _539
REMARK  221  A    between atoms: _538  and  _541
REMARK  222  A    between atoms: _541  and  _542
REMARK  223  A    between atoms: _545  and  _547
REMARK  224  A    between atoms: _547  and  _548
REMARK  225  A    between atoms: _547  and  _550
REMARK  226  A    between atoms: _550  and  _551
REMARK  227  A    between atoms: _554  and  _556
REMARK  228  A    between atoms: _556  and  _557
REMARK  229  A    between atoms: _556  and  _559
REMARK  230  A    between atoms: _559  and  _560
REMARK  231  A    between atoms: _560  and  _561
REMARK  232  A    between atoms: _566  and  _568
REMARK  233  A    between atoms: _568  and  _569
REMARK  234  A    between atoms: _568  and  _571
REMARK  235  A    between atoms: _571  and  _572
REMARK  236  A    between atoms: _577  and  _579
REMARK  237  A    between atoms: _579  and  _580
REMARK  238  A    between atoms: _579  and  _582
REMARK  239  A    between atoms: _582  and  _583
REMARK  240  A    between atoms: _585  and  _587
REMARK  241  A    between atoms: _587  and  _588
REMARK  242  A    between atoms: _587  and  _590
REMARK  243  A    between atoms: _590  and  _591
REMARK  244  A    between atoms: _591  and  _592
REMARK  245  A    between atoms: _597  and  _599
REMARK  246  A    between atoms: _599  and  _600
REMARK  247  A    between atoms: _599  and  _602
REMARK  248  A    between atoms: _602  and  _603
REMARK  249  A    between atoms: _608  and  _609
REMARK  250  A    between atoms: _611  and  _613
REMARK  251  A    between atoms: _613  and  _614
REMARK  252  A    between atoms: _613  and  _616
REMARK  253  A    between atoms: _616  and  _617
REMARK  254  A    between atoms: _617  and  _618
REMARK  255  A    between atoms: _618  and  _619
REMARK  256  A    between atoms: _628  and  _630
REMARK  257  A    between atoms: _630  and  _631
REMARK  258  A    between atoms: _630  and  _633
REMARK  259  A    between atoms: _633  and  _634
REMARK  260  A    between atoms: _637  and  _639
REMARK  261  A    between atoms: _639  and  _640
REMARK  262  A    between atoms: _639  and  _642
REMARK  263  A    between atoms: _642  and  _643
REMARK  264  A    between atoms: _645  and  _647
REMARK  265  A    between atoms: _647  and  _648
REMARK  266  A    between atoms: _647  and  _650
REMARK  267  A    between atoms: _650  and  _651
REMARK  268  A    between atoms: _656  and  _658
REMARK  269  A    between atoms: _658  and  _659
REMARK  270  A    between atoms: _658  and  _661
REMARK  271  A    between atoms: _661  and  _662
REMARK  272  A    between atoms: _662  and  _663
REMARK  273  A    between atoms: _663  and  _664
REMARK  274  A    between atoms: _664  and  _665
REMARK  275  A    between atoms: _669  and  _671
REMARK  276  A    between atoms: _671  and  _672
REMARK  277  A    between atoms: _671  and  _674
REMARK  278  A    between atoms: _674  and  _675
REMARK  279  A    between atoms: _678  and  _680
REMARK  280  A    between atoms: _680  and  _681
REMARK  281  A    between atoms: _680  and  _683
REMARK  282  A    between atoms: _683  and  _684
REMARK  283  A    between atoms: _687  and  _689
REMARK  284  A    between atoms: _689  and  _690
REMARK  285  A    between atoms: _689  and  _692
REMARK  286  A    between atoms: _695  and  _697
REMARK  287  A    between atoms: _697  and  _698
REMARK  288  A    between atoms: _697  and  _700
REMARK  289  A    between atoms: _700  and  _701
REMARK  290  A    between atoms: _704  and  _706
REMARK  291  A    between atoms: _706  and  _707
REMARK  292  A    between atoms: _706  and  _709
REMARK  293  A    between atoms: _709  and  _710
REMARK                            x       y       z     vdW  Elec       q    Type
REMARK                         _______ _______ _______ _____ _____    ______ ____
ROOT
ATOM      1  O   HOH     1      61.597   6.432   6.550  0.00  0.00    +0.000 OA
ENDROOT
TORSDOF 0
REMARK  Name = ../refined-set-2016/2o4r/2o4r_pocket.pdb
REMARK  293 active torsions:
REMARK  status: ('A' for Active; 'I' for Inactive)
REMARK    1  A    between atoms: _1  and  _3
REMARK    2  A    between atoms: _3  and  _4
REMARK    3  A    between atoms: _3  and  _6
REMARK    4  A    between atoms: _6  and  _7
REMARK    5  A    between atoms: _10  and  _12
REMARK    6  A    between atoms: _12  and  _13
REMARK    7  A    between atoms: _12  and  _15
REMARK    8  A    between atoms: _15  and  _16
REMARK    9  A    between atoms: _21  and  _22
REMARK   10  A    between atoms: _24  and  _26
REMARK   11  A    between atoms: _26  and  _27
REMARK   12  A    between atoms: _26  and  _29
REMARK   13  A    between atoms: _29  and  _30
REMARK   14  A    between atoms: _34  and  _35
REMARK   15  A    between atoms: _40  and  _42
REMARK   16  A    between atoms: _42  and  _43
REMARK   17  A    between atoms: _42  and  _45
REMARK   18  A    between atoms: _45  and  _46
REMARK   19  A    between atoms: _51  and  _52
REMARK   20  A    between atoms: _54  and  _56
REMARK   21  A    between atoms: _56  and  _57
REMARK   22  A    between atoms: _56  and  _59
REMARK   23  A    between atoms: _59  and  _60
REMARK   24  A    between atoms: _66  and  _68
REMARK   25  A    between atoms: _68  and  _69
REMARK   26  A    between atoms: _68  and  _71
REMARK   27  A    between atoms: _71  and  _72
REMARK   28  A    between atoms: _78  and  _80
REMARK   29  A    between atoms: _80  and  _81
REMARK   30  A    between atoms: _80  and  _83
REMARK   31  A    between atoms: _83  and  _84
REMARK   32  A    between atoms: _84  and  _85
REMARK   33  A    between atoms: _85  and  _86
REMARK   34  A    between atoms: _95  and  _97
REMARK   35  A    between atoms: _97  and  _98
REMARK   36  A    between atoms: _97  and  _100
REMARK   37  A    between atoms: _100  and  _101
REMARK   38  A    between atoms: _101  and  _102
REMARK   39  A    between atoms: _104  and  _106
REMARK   40  A    between atoms: _106  and  _107
REMARK   41  A    between atoms: _106  and  _109
REMARK   42  A    between atoms: _109  and  _110
REMARK   43  A    between atoms: _114  and  _115
REMARK   44  A    between atoms: _120  and  _122
REMARK   45  A    between atoms: _122  and  _123
REMARK   46  A    between atoms: _122  and  _125
REMARK   47  A    between atoms: _125  and  _126
REMARK   48  A    between atoms: _131  and  _133
REMARK   49  A    between atoms: _133  and  _134
REMARK   50  A    between atoms: _133  and  _136
REMARK   51  A    between atoms: _136  and  _137
REMARK   52  A    between atoms: _140  and  _142
REMARK   53  A    between atoms: _142  and  _143
REMARK   54  A    between atoms: _146  and  _148
REMARK   55  A    between atoms: _148  and  _149
REMARK   56  A    between atoms: _148  and  _151
REMARK   57  A    between atoms: _151  and  _152
REMARK   58  A    between atoms: _155  and  _157
REMARK   59  A    between atoms: _157  and  _158
REMARK   60  A    between atoms: _157  and  _160
REMARK   61  A    between atoms: _160  and  _161
REMARK   62  A    between atoms: _164  and  _166
REMARK   63  A    between atoms: _166  and  _167
REMARK   64  A    between atoms: _166  and  _169
REMARK   65  A    between atoms: _172  and  _174
REMARK   66  A    between atoms: _174  and  _175
REMARK   67  A    between atoms: _174  and  _177
REMARK   68  A    between atoms: _177  and  _178
REMARK   69  A    between atoms: _180  and  _182
REMARK   70  A    between atoms: _182  and  _183
REMARK   71  A    between atoms: _182  and  _185
REMARK   72  A    between atoms: _185  and  _186
REMARK   73  A    between atoms: _191  and  _192
REMARK   74  A    between atoms: _194  and  _196
REMARK   75  A    between atoms: _196  and  _197
REMARK   76  A    between atoms: _196  and  _199
REMARK   77  A    between atoms: _199  and  _200
REMARK   78  A    between atoms: _202  and  _204
REMARK   79  A    between atoms: _204  and  _205
REMARK   80  A    between atoms: _204  and  _207
REMARK   81  A    between atoms: _207  and  _208
REMARK   82  A    between atoms: _211  and  _213
REMARK   83  A    between atoms: _213  and  _214
REMARK   84  A    between atoms: _213  and  _216
REMARK   85  A    between atoms: _216  and  _217
REMARK   86  A    between atoms: _217  and  _218
REMARK   87  A    between atoms: _218  and  _219
REMARK   88  A    between atoms: _219  and  _220
REMARK   89  A    between atoms: _224  and  _226
REMARK   90  A    between atoms: _226  and  _227
REMARK   91  A    between atoms: _226  and  _229
REMARK   92  A    between atoms: _232  and  _234
REMARK   93  A    between atoms: _234  and  _235
REMARK   94  A    between atoms: _238  and  _240
REMARK   95  A    between atoms: _240  and  _241
REMARK   96  A    between atoms: _240  and  _243
REMARK   97  A    between atoms: _243  and  _244
REMARK   98  A    between atoms: _247  and  _249
REMARK   99  A    between atoms: _249  and  _250
REMARK  100  A    between atoms: _249  and  _252
REMARK  101  A    between atoms: _252  and  _253
REMARK  102  A    between atoms: _253  and  _254
REMARK  103  A    between atoms: _257  and  _259
REMARK  104  A    between atoms: _259  and  _260
REMARK  105  A    between atoms: _259  and  _262
REMARK  106  A    between atoms: _265  and  _267
REMARK  107  A    between atoms: _267  and  _268
REMARK  108  A    between atoms: _267  and  _270
REMARK  109  A    between atoms: _270  and  _271
REMARK  110  A    between atoms: _274  and  _276
REMARK  111  A    between atoms: _276  and  _277
REMARK  112  A    between atoms: _276  and  _279
REMARK  113  A    between atoms: _279  and  _280
REMARK  114  A    between atoms: _280  and  _281
REMARK  115  A    between atoms: _283  and  _285
REMARK  116  A    between atoms: _285  and  _286
REMARK  117  A    between atoms: _285  and  _288
REMARK  118  A    between atoms: _288  and  _289
REMARK  119  A    between atoms: _292  and  _294
REMARK  120  A    between atoms: _294  and  _295
REMARK  121  A    between atoms: _294  and  _297
REMARK  122  A    between atoms: _297  and  _298
REMARK  123  A    between atoms: _298  and  _299
REMARK  124  A    between atoms: _299  and  _300
REMARK  125  A    between atoms: _309  and  _311
REMARK  126  A    between atoms: _311  and  _312
REMARK  127  A    between atoms: _311  and  _314
REMARK  128  A    between atoms: _314  and  _315
REMARK  129  A    between atoms: _317  and  _319
REMARK  130  A    between atoms: _319  and  _320
REMARK  131  A    between atoms: _319  and  _322
REMARK  132  A    between atoms: _322  and  _323
REMARK  133  A    between atoms: _328  and  _330
REMARK  134  A    between atoms: _330  and  _331
REMARK  135  A    between atoms: _330  and  _333
REMARK  136  A    between atoms: _333  and  _334
REMARK  137  A    between atoms: _334  and  _335
REMARK  138  A    between atoms: _340  and  _342
REMARK  139  A    between atoms: _342  and  _343
REMARK  140  A    between atoms: _342  and  _345
REMARK  141  A    between atoms: _345  and  _346
REMARK  142  A    between atoms: _348  and  _350
REMARK  143  A    between atoms: _350  and  _351
REMARK  144  A    between atoms: _350  and  _353
REMARK  145  A    between atoms: _353  and  _354
REMARK  146  A    between atoms: _360  and  _362
REMARK  147  A    between atoms: _362  and  _363
REMARK  148  A    between atoms: _362  and  _365
REMARK  149  A    between atoms: _365  and  _366
REMARK  150  A    between atoms: _368  and  _370
REMARK  151  A    between atoms: _370  and  _371
REMARK  152  A    between atoms: _370  and  _373
REMARK  153  A    between atoms: _373  and  _374
REMARK  154  A    between atoms: _384  and  _386
REMARK  155  A    between atoms: _386  and  _387
REMARK  156  A    between atoms: _386  and  _389
REMARK  157  A    between atoms: _389  and  _390
REMARK  158  A    between atoms: _393  and  _395
REMARK  159  A    between atoms: _395  and  _396
REMARK  160  A    between atoms: _395  and  _398
REMARK  161  A    between atoms: _400  and  _402
REMARK  162  A    between atoms: _402  and  _403
REMARK  163  A    between atoms: _402  and  _405
REMARK  164  A    between atoms: _405  and  _406
REMARK  165  A    between atoms: _411  and  _412
REMARK  166  A    between atoms: _414  and  _416
REMARK  167  A    between atoms: _416  and  _417
REMARK  168  A    between atoms: _416  and  _419
REMARK  169  A    between atoms: _419  and  _420
REMARK  170  A    between atoms: _420  and  _421
REMARK  171  A    between atoms: _421  and  _422
REMARK  172  A    between atoms: _422  and  _423
REMARK  173  A    between atoms: _427  and  _429
REMARK  174  A    between atoms: _429  and  _430
REMARK  175  A    between atoms: _429  and  _432
REMARK  176  A    between atoms: _432  and  _433
REMARK  177  A    between atoms: _438  and  _439
REMARK  178  A    between atoms: _441  and  _443
REMARK  179  A    between atoms: _443  and  _444
REMARK  180  A    between atoms: _443  and  _446
REMARK  181  A    between atoms: _446  and  _447
REMARK  182  A    between atoms: _450  and  _452
REMARK  183  A    between atoms: _452  and  _453
REMARK  184  A    between atoms: _452  and  _455
REMARK  185  A    between atoms: _458  and  _460
REMARK  186  A    between atoms: _460  and  _461
REMARK  187  A    between atoms: _460  and  _463
REMARK  188  A    between atoms: _463  and  _464
REMARK  189  A    between atoms: _467  and  _469
REMARK  190  A    between atoms: _469  and  _470
REMARK  191  A    between atoms: _469  and  _472
REMARK  192  A    between atoms: _475  and  _477
REMARK  193  A    between atoms: _477  and  _478
REMARK  194  A    between atoms: _477  and  _480
REMARK  195  A    between atoms: _480  and  _481
REMARK  196  A    between atoms: _483  and  _485
REMARK  197  A    between atoms: _485  and  _486
REMARK  198  A    between atoms: _485  and  _488
REMARK  199  A    between atoms: _488  and  _489
REMARK  200  A    between atoms: _489  and  _490
REMARK  201  A    between atoms: _490  and  _491
REMARK  202  A    between atoms: _491  and  _492
REMARK  203  A    between atoms: _496  and  _498
REMARK  204  A    between atoms: _498  and  _499
REMARK  205  A    between atoms: _502  and  _504
REMARK  206  A    between atoms: _504  and  _505
REMARK  207  A    between atoms: _507  and  _509
REMARK  208  A    between atoms: _509  and  _510
REMARK  209  A    between atoms: _509  and  _512
REMARK  210  A    between atoms: _512  and  _513
REMARK  211  A    between atoms: _518  and  _520
REMARK  212  A    between atoms: _520  and  _521
REMARK  213  A    between atoms: _520  and  _523
REMARK  214  A    between atoms: _523  and  _524
REMARK  215  A    between atoms: _527  and  _529
REMARK  216  A    between atoms: _529  and  _530
REMARK  217  A    between atoms: _529  and  _532
REMARK  218  A    between atoms: _532  and  _533
REMARK  219  A    between atoms: _536  and  _538
REMARK  220  A    between atoms: _538  and  _539
REMARK  221  A    between atoms: _538  and  _541
REMARK  222  A    between atoms: _541  and  _542
REMARK  223  A    between atoms: _545  and  _547
REMARK  224  A    between atoms: _547  and  _548
REMARK  225  A    between atoms: _547  and  _550
REMARK  226  A    between atoms: _550  and  _551
REMARK  227  A    between atoms: _554  and  _556
REMARK  228  A    between atoms: _556  and  _557
REMARK  229  A    between atoms: _556  and  _559
REMARK  230  A    between atoms: _559  and  _560
REMARK  231  A    between atoms: _560  and  _561
REMARK  232  A    between atoms: _566  and  _568
REMARK  233  A    between atoms: _568  and  _569
REMARK  234  A    between atoms: _568  and  _571
REMARK  235  A    between atoms: _571  and  _572
REMARK  236  A    between atoms: _577  and  _579
REMARK  237  A    between atoms: _579  and  _580
REMARK  238  A    between atoms: _579  and  _582
REMARK  239  A    between atoms: _582  and  _583
REMARK  240  A    between atoms: _585  and  _587
REMARK  241  A    between atoms: _587  and  _588
REMARK  242  A    between atoms: _587  and  _590
REMARK  243  A    between atoms: _590  and  _591
REMARK  244  A    between atoms: _591  and  _592
REMARK  245  A    between atoms: _597  and  _599
REMARK  246  A    between atoms: _599  and  _600
REMARK  247  A    between atoms: _599  and  _602
REMARK  248  A    between atoms: _602  and  _603
REMARK  249  A    between atoms: _608  and  _609
REMARK  250  A    between atoms: _611  and  _613
REMARK  251  A    between atoms: _613  and  _614
REMARK  252  A    between atoms: _613  and  _616
REMARK  253  A    between atoms: _616  and  _617
REMARK  254  A    between atoms: _617  and  _618
REMARK  255  A    between atoms: _618  and  _619
REMARK  256  A    between atoms: _628  and  _630
REMARK  257  A    between atoms: _630  and  _631
REMARK  258  A    between atoms: _630  and  _633
REMARK  259  A    between atoms: _633  and  _634
REMARK  260  A    between atoms: _637  and  _639
REMARK  261  A    between atoms: _639  and  _640
REMARK  262  A    between atoms: _639  and  _642
REMARK  263  A    between atoms: _642  and  _643
REMARK  264  A    between atoms: _645  and  _647
REMARK  265  A    between atoms: _647  and  _648
REMARK  266  A    between atoms: _647  and  _650
REMARK  267  A    between atoms: _650  and  _651
REMARK  268  A    between atoms: _656  and  _658
REMARK  269  A    between atoms: _658  and  _659
REMARK  270  A    between atoms: _658  and  _661
REMARK  271  A    between atoms: _661  and  _662
REMARK  272  A    between atoms: _662  and  _663
REMARK  273  A    between atoms: _663  and  _664
REMARK  274  A    between atoms: _664  and  _665
REMARK  275  A    between atoms: _669  and  _671
REMARK  276  A    between atoms: _671  and  _672
REMARK  277  A    between atoms: _671  and  _674
REMARK  278  A    between atoms: _674  and  _675
REMARK  279  A    between atoms: _678  and  _680
REMARK  280  A    between atoms: _680  and  _681
REMARK  281  A    between atoms: _680  and  _683
REMARK  282  A    between atoms: _683  and  _684
REMARK  283  A    between atoms: _687  and  _689
REMARK  284  A    between atoms: _689  and  _690
REMARK  285  A    between atoms: _689  and  _692
REMARK  286  A    between atoms: _695  and  _697
REMARK  287  A    between atoms: _697  and  _698
REMARK  288  A    between atoms: _697  and  _700
REMARK  289  A    between atoms: _700  and  _701
REMARK  290  A    between atoms: _704  and  _706
REMARK  291  A    between atoms: _706  and  _707
REMARK  292  A    between atoms: _706  and  _709
REMARK  293  A    between atoms: _709  and  _710
REMARK                            x       y       z     vdW  Elec       q    Type
REMARK                         _______ _______ _______ _____ _____    ______ ____
ROOT
ATOM      1  O   HOH     1      56.697   1.139   7.106  0.00  0.00    +0.000 OA
ENDROOT
TORSDOF 0
REMARK  Name = ../refined-set-2016/2o4r/2o4r_pocket.pdb
REMARK  293 active torsions:
REMARK  status: ('A' for Active; 'I' for Inactive)
REMARK    1  A    between atoms: _1  and  _3
REMARK    2  A    between atoms: _3  and  _4
REMARK    3  A    between atoms: _3  and  _6
REMARK    4  A    between atoms: _6  and  _7
REMARK    5  A    between atoms: _10  and  _12
REMARK    6  A    between atoms: _12  and  _13
REMARK    7  A    between atoms: _12  and  _15
REMARK    8  A    between atoms: _15  and  _16
REMARK    9  A    between atoms: _21  and  _22
REMARK   10  A    between atoms: _24  and  _26
REMARK   11  A    between atoms: _26  and  _27
REMARK   12  A    between atoms: _26  and  _29
REMARK   13  A    between atoms: _29  and  _30
REMARK   14  A    between atoms: _34  and  _35
REMARK   15  A    between atoms: _40  and  _42
REMARK   16  A    between atoms: _42  and  _43
REMARK   17  A    between atoms: _42  and  _45
REMARK   18  A    between atoms: _45  and  _46
REMARK   19  A    between atoms: _51  and  _52
REMARK   20  A    between atoms: _54  and  _56
REMARK   21  A    between atoms: _56  and  _57
REMARK   22  A    between atoms: _56  and  _59
REMARK   23  A    between atoms: _59  and  _60
REMARK   24  A    between atoms: _66  and  _68
REMARK   25  A    between atoms: _68  and  _69
REMARK   26  A    between atoms: _68  and  _71
REMARK   27  A    between atoms: _71  and  _72
REMARK   28  A    between atoms: _78  and  _80
REMARK   29  A    between atoms: _80  and  _81
REMARK   30  A    between atoms: _80  and  _83
REMARK   31  A    between atoms: _83  and  _84
REMARK   32  A    between atoms: _84  and  _85
REMARK   33  A    between atoms: _85  and  _86
REMARK   34  A    between atoms: _95  and  _97
REMARK   35  A    between atoms: _97  and  _98
REMARK   36  A    between atoms: _97  and  _100
REMARK   37  A    between atoms: _100  and  _101
REMARK   38  A    between atoms: _101  and  _102
REMARK   39  A    between atoms: _104  and  _106
REMARK   40  A    between atoms: _106  and  _107
REMARK   41  A    between atoms: _106  and  _109
REMARK   42  A    between atoms: _109  and  _110
REMARK   43  A    between atoms: _114  and  _115
REMARK   44  A    between atoms: _120  and  _122
REMARK   45  A    between atoms: _122  and  _123
REMARK   46  A    between atoms: _122  and  _125
REMARK   47  A    between atoms: _125  and  _126
REMARK   48  A    between atoms: _131  and  _133
REMARK   49  A    between atoms: _133  and  _134
REMARK   50  A    between atoms: _133  and  _136
REMARK   51  A    between atoms: _136  and  _137
REMARK   52  A    between atoms: _140  and  _142
REMARK   53  A    between atoms: _142  and  _143
REMARK   54  A    between atoms: _146  and  _148
REMARK   55  A    between atoms: _148  and  _149
REMARK   56  A    between atoms: _148  and  _151
REMARK   57  A    between atoms: _151  and  _152
REMARK   58  A    between atoms: _155  and  _157
REMARK   59  A    between atoms: _157  and  _158
REMARK   60  A    between atoms: _157  and  _160
REMARK   61  A    between atoms: _160  and  _161
REMARK   62  A    between atoms: _164  and  _166
REMARK   63  A    between atoms: _166  and  _167
REMARK   64  A    between atoms: _166  and  _169
REMARK   65  A    between atoms: _172  and  _174
REMARK   66  A    between atoms: _174  and  _175
REMARK   67  A    between atoms: _174  and  _177
REMARK   68  A    between atoms: _177  and  _178
REMARK   69  A    between atoms: _180  and  _182
REMARK   70  A    between atoms: _182  and  _183
REMARK   71  A    between atoms: _182  and  _185
REMARK   72  A    between atoms: _185  and  _186
REMARK   73  A    between atoms: _191  and  _192
REMARK   74  A    between atoms: _194  and  _196
REMARK   75  A    between atoms: _196  and  _197
REMARK   76  A    between atoms: _196  and  _199
REMARK   77  A    between atoms: _199  and  _200
REMARK   78  A    between atoms: _202  and  _204
REMARK   79  A    between atoms: _204  and  _205
REMARK   80  A    between atoms: _204  and  _207
REMARK   81  A    between atoms: _207  and  _208
REMARK   82  A    between atoms: _211  and  _213
REMARK   83  A    between atoms: _213  and  _214
REMARK   84  A    between atoms: _213  and  _216
REMARK   85  A    between atoms: _216  and  _217
REMARK   86  A    between atoms: _217  and  _218
REMARK   87  A    between atoms: _218  and  _219
REMARK   88  A    between atoms: _219  and  _220
REMARK   89  A    between atoms: _224  and  _226
REMARK   90  A    between atoms: _226  and  _227
REMARK   91  A    between atoms: _226  and  _229
REMARK   92  A    between atoms: _232  and  _234
REMARK   93  A    between atoms: _234  and  _235
REMARK   94  A    between atoms: _238  and  _240
REMARK   95  A    between atoms: _240  and  _241
REMARK   96  A    between atoms: _240  and  _243
REMARK   97  A    between atoms: _243  and  _244
REMARK   98  A    between atoms: _247  and  _249
REMARK   99  A    between atoms: _249  and  _250
REMARK  100  A    between atoms: _249  and  _252
REMARK  101  A    between atoms: _252  and  _253
REMARK  102  A    between atoms: _253  and  _254
REMARK  103  A    between atoms: _257  and  _259
REMARK  104  A    between atoms: _259  and  _260
REMARK  105  A    between atoms: _259  and  _262
REMARK  106  A    between atoms: _265  and  _267
REMARK  107  A    between atoms: _267  and  _268
REMARK  108  A    between atoms: _267  and  _270
REMARK  109  A    between atoms: _270  and  _271
REMARK  110  A    between atoms: _274  and  _276
REMARK  111  A    between atoms: _276  and  _277
REMARK  112  A    between atoms: _276  and  _279
REMARK  113  A    between atoms: _279  and  _280
REMARK  114  A    between atoms: _280  and  _281
REMARK  115  A    between atoms: _283  and  _285
REMARK  116  A    between atoms: _285  and  _286
REMARK  117  A    between atoms: _285  and  _288
REMARK  118  A    between atoms: _288  and  _289
REMARK  119  A    between atoms: _292  and  _294
REMARK  120  A    between atoms: _294  and  _295
REMARK  121  A    between atoms: _294  and  _297
REMARK  122  A    between atoms: _297  and  _298
REMARK  123  A    between atoms: _298  and  _299
REMARK  124  A    between atoms: _299  and  _300
REMARK  125  A    between atoms: _309  and  _311
REMARK  126  A    between atoms: _311  and  _312
REMARK  127  A    between atoms: _311  and  _314
REMARK  128  A    between atoms: _314  and  _315
REMARK  129  A    between atoms: _317  and  _319
REMARK  130  A    between atoms: _319  and  _320
REMARK  131  A    between atoms: _319  and  _322
REMARK  132  A    between atoms: _322  and  _323
REMARK  133  A    between atoms: _328  and  _330
REMARK  134  A    between atoms: _330  and  _331
REMARK  135  A    between atoms: _330  and  _333
REMARK  136  A    between atoms: _333  and  _334
REMARK  137  A    between atoms: _334  and  _335
REMARK  138  A    between atoms: _340  and  _342
REMARK  139  A    between atoms: _342  and  _343
REMARK  140  A    between atoms: _342  and  _345
REMARK  141  A    between atoms: _345  and  _346
REMARK  142  A    between atoms: _348  and  _350
REMARK  143  A    between atoms: _350  and  _351
REMARK  144  A    between atoms: _350  and  _353
REMARK  145  A    between atoms: _353  and  _354
REMARK  146  A    between atoms: _360  and  _362
REMARK  147  A    between atoms: _362  and  _363
REMARK  148  A    between atoms: _362  and  _365
REMARK  149  A    between atoms: _365  and  _366
REMARK  150  A    between atoms: _368  and  _370
REMARK  151  A    between atoms: _370  and  _371
REMARK  152  A    between atoms: _370  and  _373
REMARK  153  A    between atoms: _373  and  _374
REMARK  154  A    between atoms: _384  and  _386
REMARK  155  A    between atoms: _386  and  _387
REMARK  156  A    between atoms: _386  and  _389
REMARK  157  A    between atoms: _389  and  _390
REMARK  158  A    between atoms: _393  and  _395
REMARK  159  A    between atoms: _395  and  _396
REMARK  160  A    between atoms: _395  and  _398
REMARK  161  A    between atoms: _400  and  _402
REMARK  162  A    between atoms: _402  and  _403
REMARK  163  A    between atoms: _402  and  _405
REMARK  164  A    between atoms: _405  and  _406
REMARK  165  A    between atoms: _411  and  _412
REMARK  166  A    between atoms: _414  and  _416
REMARK  167  A    between atoms: _416  and  _417
REMARK  168  A    between atoms: _416  and  _419
REMARK  169  A    between atoms: _419  and  _420
REMARK  170  A    between atoms: _420  and  _421
REMARK  171  A    between atoms: _421  and  _422
REMARK  172  A    between atoms: _422  and  _423
REMARK  173  A    between atoms: _427  and  _429
REMARK  174  A    between atoms: _429  and  _430
REMARK  175  A    between atoms: _429  and  _432
REMARK  176  A    between atoms: _432  and  _433
REMARK  177  A    between atoms: _438  and  _439
REMARK  178  A    between atoms: _441  and  _443
REMARK  179  A    between atoms: _443  and  _444
REMARK  180  A    between atoms: _443  and  _446
REMARK  181  A    between atoms: _446  and  _447
REMARK  182  A    between atoms: _450  and  _452
REMARK  183  A    between atoms: _452  and  _453
REMARK  184  A    between atoms: _452  and  _455
REMARK  185  A    between atoms: _458  and  _460
REMARK  186  A    between atoms: _460  and  _461
REMARK  187  A    between atoms: _460  and  _463
REMARK  188  A    between atoms: _463  and  _464
REMARK  189  A    between atoms: _467  and  _469
REMARK  190  A    between atoms: _469  and  _470
REMARK  191  A    between atoms: _469  and  _472
REMARK  192  A    between atoms: _475  and  _477
REMARK  193  A    between atoms: _477  and  _478
REMARK  194  A    between atoms: _477  and  _480
REMARK  195  A    between atoms: _480  and  _481
REMARK  196  A    between atoms: _483  and  _485
REMARK  197  A    between atoms: _485  and  _486
REMARK  198  A    between atoms: _485  and  _488
REMARK  199  A    between atoms: _488  and  _489
REMARK  200  A    between atoms: _489  and  _490
REMARK  201  A    between atoms: _490  and  _491
REMARK  202  A    between atoms: _491  and  _492
REMARK  203  A    between atoms: _496  and  _498
REMARK  204  A    between atoms: _498  and  _499
REMARK  205  A    between atoms: _502  and  _504
REMARK  206  A    between atoms: _504  and  _505
REMARK  207  A    between atoms: _507  and  _509
REMARK  208  A    between atoms: _509  and  _510
REMARK  209  A    between atoms: _509  and  _512
REMARK  210  A    between atoms: _512  and  _513
REMARK  211  A    between atoms: _518  and  _520
REMARK  212  A    between atoms: _520  and  _521
REMARK  213  A    between atoms: _520  and  _523
REMARK  214  A    between atoms: _523  and  _524
REMARK  215  A    between atoms: _527  and  _529
REMARK  216  A    between atoms: _529  and  _530
REMARK  217  A    between atoms: _529  and  _532
REMARK  218  A    between atoms: _532  and  _533
REMARK  219  A    between atoms: _536  and  _538
REMARK  220  A    between atoms: _538  and  _539
REMARK  221  A    between atoms: _538  and  _541
REMARK  222  A    between atoms: _541  and  _542
REMARK  223  A    between atoms: _545  and  _547
REMARK  224  A    between atoms: _547  and  _548
REMARK  225  A    between atoms: _547  and  _550
REMARK  226  A    between atoms: _550  and  _551
REMARK  227  A    between atoms: _554  and  _556
REMARK  228  A    between atoms: _556  and  _557
REMARK  229  A    between atoms: _556  and  _559
REMARK  230  A    between atoms: _559  and  _560
REMARK  231  A    between atoms: _560  and  _561
REMARK  232  A    between atoms: _566  and  _568
REMARK  233  A    between atoms: _568  and  _569
REMARK  234  A    between atoms: _568  and  _571
REMARK  235  A    between atoms: _571  and  _572
REMARK  236  A    between atoms: _577  and  _579
REMARK  237  A    between atoms: _579  and  _580
REMARK  238  A    between atoms: _579  and  _582
REMARK  239  A    between atoms: _582  and  _583
REMARK  240  A    between atoms: _585  and  _587
REMARK  241  A    between atoms: _587  and  _588
REMARK  242  A    between atoms: _587  and  _590
REMARK  243  A    between atoms: _590  and  _591
REMARK  244  A    between atoms: _591  and  _592
REMARK  245  A    between atoms: _597  and  _599
REMARK  246  A    between atoms: _599  and  _600
REMARK  247  A    between atoms: _599  and  _602
REMARK  248  A    between atoms: _602  and  _603
REMARK  249  A    between atoms: _608  and  _609
REMARK  250  A    between atoms: _611  and  _613
REMARK  251  A    between atoms: _613  and  _614
REMARK  252  A    between atoms: _613  and  _616
REMARK  253  A    between atoms: _616  and  _617
REMARK  254  A    between atoms: _617  and  _618
REMARK  255  A    between atoms: _618  and  _619
REMARK  256  A    between atoms: _628  and  _630
REMARK  257  A    between atoms: _630  and  _631
REMARK  258  A    between atoms: _630  and  _633
REMARK  259  A    between atoms: _633  and  _634
REMARK  260  A    between atoms: _637  and  _639
REMARK  261  A    between atoms: _639  and  _640
REMARK  262  A    between atoms: _639  and  _642
REMARK  263  A    between atoms: _642  and  _643
REMARK  264  A    between atoms: _645  and  _647
REMARK  265  A    between atoms: _647  and  _648
REMARK  266  A    between atoms: _647  and  _650
REMARK  267  A    between atoms: _650  and  _651
REMARK  268  A    between atoms: _656  and  _658
REMARK  269  A    between atoms: _658  and  _659
REMARK  270  A    between atoms: _658  and  _661
REMARK  271  A    between atoms: _661  and  _662
REMARK  272  A    between atoms: _662  and  _663
REMARK  273  A    between atoms: _663  and  _664
REMARK  274  A    between atoms: _664  and  _665
REMARK  275  A    between atoms: _669  and  _671
REMARK  276  A    between atoms: _671  and  _672
REMARK  277  A    between atoms: _671  and  _674
REMARK  278  A    between atoms: _674  and  _675
REMARK  279  A    between atoms: _678  and  _680
REMARK  280  A    between atoms: _680  and  _681
REMARK  281  A    between atoms: _680  and  _683
REMARK  282  A    between atoms: _683  and  _684
REMARK  283  A    between atoms: _687  and  _689
REMARK  284  A    between atoms: _689  and  _690
REMARK  285  A    between atoms: _689  and  _692
REMARK  286  A    between atoms: _695  and  _697
REMARK  287  A    between atoms: _697  and  _698
REMARK  288  A    between atoms: _697  and  _700
REMARK  289  A    between atoms: _700  and  _701
REMARK  290  A    between atoms: _704  and  _706
REMARK  291  A    between atoms: _706  and  _707
REMARK  292  A    between atoms: _706  and  _709
REMARK  293  A    between atoms: _709  and  _710
REMARK                            x       y       z     vdW  Elec       q    Type
REMARK                         _______ _______ _______ _____ _____    ______ ____
ROOT
ATOM      1  O   HOH     1      56.906   3.089   8.924  0.00  0.00    +0.000 OA
ENDROOT
TORSDOF 0
REMARK  Name = ../refined-set-2016/2o4r/2o4r_pocket.pdb
REMARK  293 active torsions:
REMARK  status: ('A' for Active; 'I' for Inactive)
REMARK    1  A    between atoms: _1  and  _3
REMARK    2  A    between atoms: _3  and  _4
REMARK    3  A    between atoms: _3  and  _6
REMARK    4  A    between atoms: _6  and  _7
REMARK    5  A    between atoms: _10  and  _12
REMARK    6  A    between atoms: _12  and  _13
REMARK    7  A    between atoms: _12  and  _15
REMARK    8  A    between atoms: _15  and  _16
REMARK    9  A    between atoms: _21  and  _22
REMARK   10  A    between atoms: _24  and  _26
REMARK   11  A    between atoms: _26  and  _27
REMARK   12  A    between atoms: _26  and  _29
REMARK   13  A    between atoms: _29  and  _30
REMARK   14  A    between atoms: _34  and  _35
REMARK   15  A    between atoms: _40  and  _42
REMARK   16  A    between atoms: _42  and  _43
REMARK   17  A    between atoms: _42  and  _45
REMARK   18  A    between atoms: _45  and  _46
REMARK   19  A    between atoms: _51  and  _52
REMARK   20  A    between atoms: _54  and  _56
REMARK   21  A    between atoms: _56  and  _57
REMARK   22  A    between atoms: _56  and  _59
REMARK   23  A    between atoms: _59  and  _60
REMARK   24  A    between atoms: _66  and  _68
REMARK   25  A    between atoms: _68  and  _69
REMARK   26  A    between atoms: _68  and  _71
REMARK   27  A    between atoms: _71  and  _72
REMARK   28  A    between atoms: _78  and  _80
REMARK   29  A    between atoms: _80  and  _81
REMARK   30  A    between atoms: _80  and  _83
REMARK   31  A    between atoms: _83  and  _84
REMARK   32  A    between atoms: _84  and  _85
REMARK   33  A    between atoms: _85  and  _86
REMARK   34  A    between atoms: _95  and  _97
REMARK   35  A    between atoms: _97  and  _98
REMARK   36  A    between atoms: _97  and  _100
REMARK   37  A    between atoms: _100  and  _101
REMARK   38  A    between atoms: _101  and  _102
REMARK   39  A    between atoms: _104  and  _106
REMARK   40  A    between atoms: _106  and  _107
REMARK   41  A    between atoms: _106  and  _109
REMARK   42  A    between atoms: _109  and  _110
REMARK   43  A    between atoms: _114  and  _115
REMARK   44  A    between atoms: _120  and  _122
REMARK   45  A    between atoms: _122  and  _123
REMARK   46  A    between atoms: _122  and  _125
REMARK   47  A    between atoms: _125  and  _126
REMARK   48  A    between atoms: _131  and  _133
REMARK   49  A    between atoms: _133  and  _134
REMARK   50  A    between atoms: _133  and  _136
REMARK   51  A    between atoms: _136  and  _137
REMARK   52  A    between atoms: _140  and  _142
REMARK   53  A    between atoms: _142  and  _143
REMARK   54  A    between atoms: _146  and  _148
REMARK   55  A    between atoms: _148  and  _149
REMARK   56  A    between atoms: _148  and  _151
REMARK   57  A    between atoms: _151  and  _152
REMARK   58  A    between atoms: _155  and  _157
REMARK   59  A    between atoms: _157  and  _158
REMARK   60  A    between atoms: _157  and  _160
REMARK   61  A    between atoms: _160  and  _161
REMARK   62  A    between atoms: _164  and  _166
REMARK   63  A    between atoms: _166  and  _167
REMARK   64  A    between atoms: _166  and  _169
REMARK   65  A    between atoms: _172  and  _174
REMARK   66  A    between atoms: _174  and  _175
REMARK   67  A    between atoms: _174  and  _177
REMARK   68  A    between atoms: _177  and  _178
REMARK   69  A    between atoms: _180  and  _182
REMARK   70  A    between atoms: _182  and  _183
REMARK   71  A    between atoms: _182  and  _185
REMARK   72  A    between atoms: _185  and  _186
REMARK   73  A    between atoms: _191  and  _192
REMARK   74  A    between atoms: _194  and  _196
REMARK   75  A    between atoms: _196  and  _197
REMARK   76  A    between atoms: _196  and  _199
REMARK   77  A    between atoms: _199  and  _200
REMARK   78  A    between atoms: _202  and  _204
REMARK   79  A    between atoms: _204  and  _205
REMARK   80  A    between atoms: _204  and  _207
REMARK   81  A    between atoms: _207  and  _208
REMARK   82  A    between atoms: _211  and  _213
REMARK   83  A    between atoms: _213  and  _214
REMARK   84  A    between atoms: _213  and  _216
REMARK   85  A    between atoms: _216  and  _217
REMARK   86  A    between atoms: _217  and  _218
REMARK   87  A    between atoms: _218  and  _219
REMARK   88  A    between atoms: _219  and  _220
REMARK   89  A    between atoms: _224  and  _226
REMARK   90  A    between atoms: _226  and  _227
REMARK   91  A    between atoms: _226  and  _229
REMARK   92  A    between atoms: _232  and  _234
REMARK   93  A    between atoms: _234  and  _235
REMARK   94  A    between atoms: _238  and  _240
REMARK   95  A    between atoms: _240  and  _241
REMARK   96  A    between atoms: _240  and  _243
REMARK   97  A    between atoms: _243  and  _244
REMARK   98  A    between atoms: _247  and  _249
REMARK   99  A    between atoms: _249  and  _250
REMARK  100  A    between atoms: _249  and  _252
REMARK  101  A    between atoms: _252  and  _253
REMARK  102  A    between atoms: _253  and  _254
REMARK  103  A    between atoms: _257  and  _259
REMARK  104  A    between atoms: _259  and  _260
REMARK  105  A    between atoms: _259  and  _262
REMARK  106  A    between atoms: _265  and  _267
REMARK  107  A    between atoms: _267  and  _268
REMARK  108  A    between atoms: _267  and  _270
REMARK  109  A    between atoms: _270  and  _271
REMARK  110  A    between atoms: _274  and  _276
REMARK  111  A    between atoms: _276  and  _277
REMARK  112  A    between atoms: _276  and  _279
REMARK  113  A    between atoms: _279  and  _280
REMARK  114  A    between atoms: _280  and  _281
REMARK  115  A    between atoms: _283  and  _285
REMARK  116  A    between atoms: _285  and  _286
REMARK  117  A    between atoms: _285  and  _288
REMARK  118  A    between atoms: _288  and  _289
REMARK  119  A    between atoms: _292  and  _294
REMARK  120  A    between atoms: _294  and  _295
REMARK  121  A    between atoms: _294  and  _297
REMARK  122  A    between atoms: _297  and  _298
REMARK  123  A    between atoms: _298  and  _299
REMARK  124  A    between atoms: _299  and  _300
REMARK  125  A    between atoms: _309  and  _311
REMARK  126  A    between atoms: _311  and  _312
REMARK  127  A    between atoms: _311  and  _314
REMARK  128  A    between atoms: _314  and  _315
REMARK  129  A    between atoms: _317  and  _319
REMARK  130  A    between atoms: _319  and  _320
REMARK  131  A    between atoms: _319  and  _322
REMARK  132  A    between atoms: _322  and  _323
REMARK  133  A    between atoms: _328  and  _330
REMARK  134  A    between atoms: _330  and  _331
REMARK  135  A    between atoms: _330  and  _333
REMARK  136  A    between atoms: _333  and  _334
REMARK  137  A    between atoms: _334  and  _335
REMARK  138  A    between atoms: _340  and  _342
REMARK  139  A    between atoms: _342  and  _343
REMARK  140  A    between atoms: _342  and  _345
REMARK  141  A    between atoms: _345  and  _346
REMARK  142  A    between atoms: _348  and  _350
REMARK  143  A    between atoms: _350  and  _351
REMARK  144  A    between atoms: _350  and  _353
REMARK  145  A    between atoms: _353  and  _354
REMARK  146  A    between atoms: _360  and  _362
REMARK  147  A    between atoms: _362  and  _363
REMARK  148  A    between atoms: _362  and  _365
REMARK  149  A    between atoms: _365  and  _366
REMARK  150  A    between atoms: _368  and  _370
REMARK  151  A    between atoms: _370  and  _371
REMARK  152  A    between atoms: _370  and  _373
REMARK  153  A    between atoms: _373  and  _374
REMARK  154  A    between atoms: _384  and  _386
REMARK  155  A    between atoms: _386  and  _387
REMARK  156  A    between atoms: _386  and  _389
REMARK  157  A    between atoms: _389  and  _390
REMARK  158  A    between atoms: _393  and  _395
REMARK  159  A    between atoms: _395  and  _396
REMARK  160  A    between atoms: _395  and  _398
REMARK  161  A    between atoms: _400  and  _402
REMARK  162  A    between atoms: _402  and  _403
REMARK  163  A    between atoms: _402  and  _405
REMARK  164  A    between atoms: _405  and  _406
REMARK  165  A    between atoms: _411  and  _412
REMARK  166  A    between atoms: _414  and  _416
REMARK  167  A    between atoms: _416  and  _417
REMARK  168  A    between atoms: _416  and  _419
REMARK  169  A    between atoms: _419  and  _420
REMARK  170  A    between atoms: _420  and  _421
REMARK  171  A    between atoms: _421  and  _422
REMARK  172  A    between atoms: _422  and  _423
REMARK  173  A    between atoms: _427  and  _429
REMARK  174  A    between atoms: _429  and  _430
REMARK  175  A    between atoms: _429  and  _432
REMARK  176  A    between atoms: _432  and  _433
REMARK  177  A    between atoms: _438  and  _439
REMARK  178  A    between atoms: _441  and  _443
REMARK  179  A    between atoms: _443  and  _444
REMARK  180  A    between atoms: _443  and  _446
REMARK  181  A    between atoms: _446  and  _447
REMARK  182  A    between atoms: _450  and  _452
REMARK  183  A    between atoms: _452  and  _453
REMARK  184  A    between atoms: _452  and  _455
REMARK  185  A    between atoms: _458  and  _460
REMARK  186  A    between atoms: _460  and  _461
REMARK  187  A    between atoms: _460  and  _463
REMARK  188  A    between atoms: _463  and  _464
REMARK  189  A    between atoms: _467  and  _469
REMARK  190  A    between atoms: _469  and  _470
REMARK  191  A    between atoms: _469  and  _472
REMARK  192  A    between atoms: _475  and  _477
REMARK  193  A    between atoms: _477  and  _478
REMARK  194  A    between atoms: _477  and  _480
REMARK  195  A    between atoms: _480  and  _481
REMARK  196  A    between atoms: _483  and  _485
REMARK  197  A    between atoms: _485  and  _486
REMARK  198  A    between atoms: _485  and  _488
REMARK  199  A    between atoms: _488  and  _489
REMARK  200  A    between atoms: _489  and  _490
REMARK  201  A    between atoms: _490  and  _491
REMARK  202  A    between atoms: _491  and  _492
REMARK  203  A    between atoms: _496  and  _498
REMARK  204  A    between atoms: _498  and  _499
REMARK  205  A    between atoms: _502  and  _504
REMARK  206  A    between atoms: _504  and  _505
REMARK  207  A    between atoms: _507  and  _509
REMARK  208  A    between atoms: _509  and  _510
REMARK  209  A    between atoms: _509  and  _512
REMARK  210  A    between atoms: _512  and  _513
REMARK  211  A    between atoms: _518  and  _520
REMARK  212  A    between atoms: _520  and  _521
REMARK  213  A    between atoms: _520  and  _523
REMARK  214  A    between atoms: _523  and  _524
REMARK  215  A    between atoms: _527  and  _529
REMARK  216  A    between atoms: _529  and  _530
REMARK  217  A    between atoms: _529  and  _532
REMARK  218  A    between atoms: _532  and  _533
REMARK  219  A    between atoms: _536  and  _538
REMARK  220  A    between atoms: _538  and  _539
REMARK  221  A    between atoms: _538  and  _541
REMARK  222  A    between atoms: _541  and  _542
REMARK  223  A    between atoms: _545  and  _547
REMARK  224  A    between atoms: _547  and  _548
REMARK  225  A    between atoms: _547  and  _550
REMARK  226  A    between atoms: _550  and  _551
REMARK  227  A    between atoms: _554  and  _556
REMARK  228  A    between atoms: _556  and  _557
REMARK  229  A    between atoms: _556  and  _559
REMARK  230  A    between atoms: _559  and  _560
REMARK  231  A    between atoms: _560  and  _561
REMARK  232  A    between atoms: _566  and  _568
REMARK  233  A    between atoms: _568  and  _569
REMARK  234  A    between atoms: _568  and  _571
REMARK  235  A    between atoms: _571  and  _572
REMARK  236  A    between atoms: _577  and  _579
REMARK  237  A    between atoms: _579  and  _580
REMARK  238  A    between atoms: _579  and  _582
REMARK  239  A    between atoms: _582  and  _583
REMARK  240  A    between atoms: _585  and  _587
REMARK  241  A    between atoms: _587  and  _588
REMARK  242  A    between atoms: _587  and  _590
REMARK  243  A    between atoms: _590  and  _591
REMARK  244  A    between atoms: _591  and  _592
REMARK  245  A    between atoms: _597  and  _599
REMARK  246  A    between atoms: _599  and  _600
REMARK  247  A    between atoms: _599  and  _602
REMARK  248  A    between atoms: _602  and  _603
REMARK  249  A    between atoms: _608  and  _609
REMARK  250  A    between atoms: _611  and  _613
REMARK  251  A    between atoms: _613  and  _614
REMARK  252  A    between atoms: _613  and  _616
REMARK  253  A    between atoms: _616  and  _617
REMARK  254  A    between atoms: _617  and  _618
REMARK  255  A    between atoms: _618  and  _619
REMARK  256  A    between atoms: _628  and  _630
REMARK  257  A    between atoms: _630  and  _631
REMARK  258  A    between atoms: _630  and  _633
REMARK  259  A    between atoms: _633  and  _634
REMARK  260  A    between atoms: _637  and  _639
REMARK  261  A    between atoms: _639  and  _640
REMARK  262  A    between atoms: _639  and  _642
REMARK  263  A    between atoms: _642  and  _643
REMARK  264  A    between atoms: _645  and  _647
REMARK  265  A    between atoms: _647  and  _648
REMARK  266  A    between atoms: _647  and  _650
REMARK  267  A    between atoms: _650  and  _651
REMARK  268  A    between atoms: _656  and  _658
REMARK  269  A    between atoms: _658  and  _659
REMARK  270  A    between atoms: _658  and  _661
REMARK  271  A    between atoms: _661  and  _662
REMARK  272  A    between atoms: _662  and  _663
REMARK  273  A    between atoms: _663  and  _664
REMARK  274  A    between atoms: _664  and  _665
REMARK  275  A    between atoms: _669  and  _671
REMARK  276  A    between atoms: _671  and  _672
REMARK  277  A    between atoms: _671  and  _674
REMARK  278  A    between atoms: _674  and  _675
REMARK  279  A    between atoms: _678  and  _680
REMARK  280  A    between atoms: _680  and  _681
REMARK  281  A    between atoms: _680  and  _683
REMARK  282  A    between atoms: _683  and  _684
REMARK  283  A    between atoms: _687  and  _689
REMARK  284  A    between atoms: _689  and  _690
REMARK  285  A    between atoms: _689  and  _692
REMARK  286  A    between atoms: _695  and  _697
REMARK  287  A    between atoms: _697  and  _698
REMARK  288  A    between atoms: _697  and  _700
REMARK  289  A    between atoms: _700  and  _701
REMARK  290  A    between atoms: _704  and  _706
REMARK  291  A    between atoms: _706  and  _707
REMARK  292  A    between atoms: _706  and  _709
REMARK  293  A    between atoms: _709  and  _710
REMARK                            x       y       z     vdW  Elec       q    Type
REMARK                         _______ _______ _______ _____ _____    ______ ____
ROOT
ATOM      1  O   HOH     1      61.415   9.267   6.218  0.00  0.00    +0.000 OA
ENDROOT
TORSDOF 0
REMARK  Name = ../refined-set-2016/2o4r/2o4r_pocket.pdb
REMARK  293 active torsions:
REMARK  status: ('A' for Active; 'I' for Inactive)
REMARK    1  A    between atoms: _1  and  _3
REMARK    2  A    between atoms: _3  and  _4
REMARK    3  A    between atoms: _3  and  _6
REMARK    4  A    between atoms: _6  and  _7
REMARK    5  A    between atoms: _10  and  _12
REMARK    6  A    between atoms: _12  and  _13
REMARK    7  A    between atoms: _12  and  _15
REMARK    8  A    between atoms: _15  and  _16
REMARK    9  A    between atoms: _21  and  _22
REMARK   10  A    between atoms: _24  and  _26
REMARK   11  A    between atoms: _26  and  _27
REMARK   12  A    between atoms: _26  and  _29
REMARK   13  A    between atoms: _29  and  _30
REMARK   14  A    between atoms: _34  and  _35
REMARK   15  A    between atoms: _40  and  _42
REMARK   16  A    between atoms: _42  and  _43
REMARK   17  A    between atoms: _42  and  _45
REMARK   18  A    between atoms: _45  and  _46
REMARK   19  A    between atoms: _51  and  _52
REMARK   20  A    between atoms: _54  and  _56
REMARK   21  A    between atoms: _56  and  _57
REMARK   22  A    between atoms: _56  and  _59
REMARK   23  A    between atoms: _59  and  _60
REMARK   24  A    between atoms: _66  and  _68
REMARK   25  A    between atoms: _68  and  _69
REMARK   26  A    between atoms: _68  and  _71
REMARK   27  A    between atoms: _71  and  _72
REMARK   28  A    between atoms: _78  and  _80
REMARK   29  A    between atoms: _80  and  _81
REMARK   30  A    between atoms: _80  and  _83
REMARK   31  A    between atoms: _83  and  _84
REMARK   32  A    between atoms: _84  and  _85
REMARK   33  A    between atoms: _85  and  _86
REMARK   34  A    between atoms: _95  and  _97
REMARK   35  A    between atoms: _97  and  _98
REMARK   36  A    between atoms: _97  and  _100
REMARK   37  A    between atoms: _100  and  _101
REMARK   38  A    between atoms: _101  and  _102
REMARK   39  A    between atoms: _104  and  _106
REMARK   40  A    between atoms: _106  and  _107
REMARK   41  A    between atoms: _106  and  _109
REMARK   42  A    between atoms: _109  and  _110
REMARK   43  A    between atoms: _114  and  _115
REMARK   44  A    between atoms: _120  and  _122
REMARK   45  A    between atoms: _122  and  _123
REMARK   46  A    between atoms: _122  and  _125
REMARK   47  A    between atoms: _125  and  _126
REMARK   48  A    between atoms: _131  and  _133
REMARK   49  A    between atoms: _133  and  _134
REMARK   50  A    between atoms: _133  and  _136
REMARK   51  A    between atoms: _136  and  _137
REMARK   52  A    between atoms: _140  and  _142
REMARK   53  A    between atoms: _142  and  _143
REMARK   54  A    between atoms: _146  and  _148
REMARK   55  A    between atoms: _148  and  _149
REMARK   56  A    between atoms: _148  and  _151
REMARK   57  A    between atoms: _151  and  _152
REMARK   58  A    between atoms: _155  and  _157
REMARK   59  A    between atoms: _157  and  _158
REMARK   60  A    between atoms: _157  and  _160
REMARK   61  A    between atoms: _160  and  _161
REMARK   62  A    between atoms: _164  and  _166
REMARK   63  A    between atoms: _166  and  _167
REMARK   64  A    between atoms: _166  and  _169
REMARK   65  A    between atoms: _172  and  _174
REMARK   66  A    between atoms: _174  and  _175
REMARK   67  A    between atoms: _174  and  _177
REMARK   68  A    between atoms: _177  and  _178
REMARK   69  A    between atoms: _180  and  _182
REMARK   70  A    between atoms: _182  and  _183
REMARK   71  A    between atoms: _182  and  _185
REMARK   72  A    between atoms: _185  and  _186
REMARK   73  A    between atoms: _191  and  _192
REMARK   74  A    between atoms: _194  and  _196
REMARK   75  A    between atoms: _196  and  _197
REMARK   76  A    between atoms: _196  and  _199
REMARK   77  A    between atoms: _199  and  _200
REMARK   78  A    between atoms: _202  and  _204
REMARK   79  A    between atoms: _204  and  _205
REMARK   80  A    between atoms: _204  and  _207
REMARK   81  A    between atoms: _207  and  _208
REMARK   82  A    between atoms: _211  and  _213
REMARK   83  A    between atoms: _213  and  _214
REMARK   84  A    between atoms: _213  and  _216
REMARK   85  A    between atoms: _216  and  _217
REMARK   86  A    between atoms: _217  and  _218
REMARK   87  A    between atoms: _218  and  _219
REMARK   88  A    between atoms: _219  and  _220
REMARK   89  A    between atoms: _224  and  _226
REMARK   90  A    between atoms: _226  and  _227
REMARK   91  A    between atoms: _226  and  _229
REMARK   92  A    between atoms: _232  and  _234
REMARK   93  A    between atoms: _234  and  _235
REMARK   94  A    between atoms: _238  and  _240
REMARK   95  A    between atoms: _240  and  _241
REMARK   96  A    between atoms: _240  and  _243
REMARK   97  A    between atoms: _243  and  _244
REMARK   98  A    between atoms: _247  and  _249
REMARK   99  A    between atoms: _249  and  _250
REMARK  100  A    between atoms: _249  and  _252
REMARK  101  A    between atoms: _252  and  _253
REMARK  102  A    between atoms: _253  and  _254
REMARK  103  A    between atoms: _257  and  _259
REMARK  104  A    between atoms: _259  and  _260
REMARK  105  A    between atoms: _259  and  _262
REMARK  106  A    between atoms: _265  and  _267
REMARK  107  A    between atoms: _267  and  _268
REMARK  108  A    between atoms: _267  and  _270
REMARK  109  A    between atoms: _270  and  _271
REMARK  110  A    between atoms: _274  and  _276
REMARK  111  A    between atoms: _276  and  _277
REMARK  112  A    between atoms: _276  and  _279
REMARK  113  A    between atoms: _279  and  _280
REMARK  114  A    between atoms: _280  and  _281
REMARK  115  A    between atoms: _283  and  _285
REMARK  116  A    between atoms: _285  and  _286
REMARK  117  A    between atoms: _285  and  _288
REMARK  118  A    between atoms: _288  and  _289
REMARK  119  A    between atoms: _292  and  _294
REMARK  120  A    between atoms: _294  and  _295
REMARK  121  A    between atoms: _294  and  _297
REMARK  122  A    between atoms: _297  and  _298
REMARK  123  A    between atoms: _298  and  _299
REMARK  124  A    between atoms: _299  and  _300
REMARK  125  A    between atoms: _309  and  _311
REMARK  126  A    between atoms: _311  and  _312
REMARK  127  A    between atoms: _311  and  _314
REMARK  128  A    between atoms: _314  and  _315
REMARK  129  A    between atoms: _317  and  _319
REMARK  130  A    between atoms: _319  and  _320
REMARK  131  A    between atoms: _319  and  _322
REMARK  132  A    between atoms: _322  and  _323
REMARK  133  A    between atoms: _328  and  _330
REMARK  134  A    between atoms: _330  and  _331
REMARK  135  A    between atoms: _330  and  _333
REMARK  136  A    between atoms: _333  and  _334
REMARK  137  A    between atoms: _334  and  _335
REMARK  138  A    between atoms: _340  and  _342
REMARK  139  A    between atoms: _342  and  _343
REMARK  140  A    between atoms: _342  and  _345
REMARK  141  A    between atoms: _345  and  _346
REMARK  142  A    between atoms: _348  and  _350
REMARK  143  A    between atoms: _350  and  _351
REMARK  144  A    between atoms: _350  and  _353
REMARK  145  A    between atoms: _353  and  _354
REMARK  146  A    between atoms: _360  and  _362
REMARK  147  A    between atoms: _362  and  _363
REMARK  148  A    between atoms: _362  and  _365
REMARK  149  A    between atoms: _365  and  _366
REMARK  150  A    between atoms: _368  and  _370
REMARK  151  A    between atoms: _370  and  _371
REMARK  152  A    between atoms: _370  and  _373
REMARK  153  A    between atoms: _373  and  _374
REMARK  154  A    between atoms: _384  and  _386
REMARK  155  A    between atoms: _386  and  _387
REMARK  156  A    between atoms: _386  and  _389
REMARK  157  A    between atoms: _389  and  _390
REMARK  158  A    between atoms: _393  and  _395
REMARK  159  A    between atoms: _395  and  _396
REMARK  160  A    between atoms: _395  and  _398
REMARK  161  A    between atoms: _400  and  _402
REMARK  162  A    between atoms: _402  and  _403
REMARK  163  A    between atoms: _402  and  _405
REMARK  164  A    between atoms: _405  and  _406
REMARK  165  A    between atoms: _411  and  _412
REMARK  166  A    between atoms: _414  and  _416
REMARK  167  A    between atoms: _416  and  _417
REMARK  168  A    between atoms: _416  and  _419
REMARK  169  A    between atoms: _419  and  _420
REMARK  170  A    between atoms: _420  and  _421
REMARK  171  A    between atoms: _421  and  _422
REMARK  172  A    between atoms: _422  and  _423
REMARK  173  A    between atoms: _427  and  _429
REMARK  174  A    between atoms: _429  and  _430
REMARK  175  A    between atoms: _429  and  _432
REMARK  176  A    between atoms: _432  and  _433
REMARK  177  A    between atoms: _438  and  _439
REMARK  178  A    between atoms: _441  and  _443
REMARK  179  A    between atoms: _443  and  _444
REMARK  180  A    between atoms: _443  and  _446
REMARK  181  A    between atoms: _446  and  _447
REMARK  182  A    between atoms: _450  and  _452
REMARK  183  A    between atoms: _452  and  _453
REMARK  184  A    between atoms: _452  and  _455
REMARK  185  A    between atoms: _458  and  _460
REMARK  186  A    between atoms: _460  and  _461
REMARK  187  A    between atoms: _460  and  _463
REMARK  188  A    between atoms: _463  and  _464
REMARK  189  A    between atoms: _467  and  _469
REMARK  190  A    between atoms: _469  and  _470
REMARK  191  A    between atoms: _469  and  _472
REMARK  192  A    between atoms: _475  and  _477
REMARK  193  A    between atoms: _477  and  _478
REMARK  194  A    between atoms: _477  and  _480
REMARK  195  A    between atoms: _480  and  _481
REMARK  196  A    between atoms: _483  and  _485
REMARK  197  A    between atoms: _485  and  _486
REMARK  198  A    between atoms: _485  and  _488
REMARK  199  A    between atoms: _488  and  _489
REMARK  200  A    between atoms: _489  and  _490
REMARK  201  A    between atoms: _490  and  _491
REMARK  202  A    between atoms: _491  and  _492
REMARK  203  A    between atoms: _496  and  _498
REMARK  204  A    between atoms: _498  and  _499
REMARK  205  A    between atoms: _502  and  _504
REMARK  206  A    between atoms: _504  and  _505
REMARK  207  A    between atoms: _507  and  _509
REMARK  208  A    between atoms: _509  and  _510
REMARK  209  A    between atoms: _509  and  _512
REMARK  210  A    between atoms: _512  and  _513
REMARK  211  A    between atoms: _518  and  _520
REMARK  212  A    between atoms: _520  and  _521
REMARK  213  A    between atoms: _520  and  _523
REMARK  214  A    between atoms: _523  and  _524
REMARK  215  A    between atoms: _527  and  _529
REMARK  216  A    between atoms: _529  and  _530
REMARK  217  A    between atoms: _529  and  _532
REMARK  218  A    between atoms: _532  and  _533
REMARK  219  A    between atoms: _536  and  _538
REMARK  220  A    between atoms: _538  and  _539
REMARK  221  A    between atoms: _538  and  _541
REMARK  222  A    between atoms: _541  and  _542
REMARK  223  A    between atoms: _545  and  _547
REMARK  224  A    between atoms: _547  and  _548
REMARK  225  A    between atoms: _547  and  _550
REMARK  226  A    between atoms: _550  and  _551
REMARK  227  A    between atoms: _554  and  _556
REMARK  228  A    between atoms: _556  and  _557
REMARK  229  A    between atoms: _556  and  _559
REMARK  230  A    between atoms: _559  and  _560
REMARK  231  A    between atoms: _560  and  _561
REMARK  232  A    between atoms: _566  and  _568
REMARK  233  A    between atoms: _568  and  _569
REMARK  234  A    between atoms: _568  and  _571
REMARK  235  A    between atoms: _571  and  _572
REMARK  236  A    between atoms: _577  and  _579
REMARK  237  A    between atoms: _579  and  _580
REMARK  238  A    between atoms: _579  and  _582
REMARK  239  A    between atoms: _582  and  _583
REMARK  240  A    between atoms: _585  and  _587
REMARK  241  A    between atoms: _587  and  _588
REMARK  242  A    between atoms: _587  and  _590
REMARK  243  A    between atoms: _590  and  _591
REMARK  244  A    between atoms: _591  and  _592
REMARK  245  A    between atoms: _597  and  _599
REMARK  246  A    between atoms: _599  and  _600
REMARK  247  A    between atoms: _599  and  _602
REMARK  248  A    between atoms: _602  and  _603
REMARK  249  A    between atoms: _608  and  _609
REMARK  250  A    between atoms: _611  and  _613
REMARK  251  A    between atoms: _613  and  _614
REMARK  252  A    between atoms: _613  and  _616
REMARK  253  A    between atoms: _616  and  _617
REMARK  254  A    between atoms: _617  and  _618
REMARK  255  A    between atoms: _618  and  _619
REMARK  256  A    between atoms: _628  and  _630
REMARK  257  A    between atoms: _630  and  _631
REMARK  258  A    between atoms: _630  and  _633
REMARK  259  A    between atoms: _633  and  _634
REMARK  260  A    between atoms: _637  and  _639
REMARK  261  A    between atoms: _639  and  _640
REMARK  262  A    between atoms: _639  and  _642
REMARK  263  A    between atoms: _642  and  _643
REMARK  264  A    between atoms: _645  and  _647
REMARK  265  A    between atoms: _647  and  _648
REMARK  266  A    between atoms: _647  and  _650
REMARK  267  A    between atoms: _650  and  _651
REMARK  268  A    between atoms: _656  and  _658
REMARK  269  A    between atoms: _658  and  _659
REMARK  270  A    between atoms: _658  and  _661
REMARK  271  A    between atoms: _661  and  _662
REMARK  272  A    between atoms: _662  and  _663
REMARK  273  A    between atoms: _663  and  _664
REMARK  274  A    between atoms: _664  and  _665
REMARK  275  A    between atoms: _669  and  _671
REMARK  276  A    between atoms: _671  and  _672
REMARK  277  A    between atoms: _671  and  _674
REMARK  278  A    between atoms: _674  and  _675
REMARK  279  A    between atoms: _678  and  _680
REMARK  280  A    between atoms: _680  and  _681
REMARK  281  A    between atoms: _680  and  _683
REMARK  282  A    between atoms: _683  and  _684
REMARK  283  A    between atoms: _687  and  _689
REMARK  284  A    between atoms: _689  and  _690
REMARK  285  A    between atoms: _689  and  _692
REMARK  286  A    between atoms: _695  and  _697
REMARK  287  A    between atoms: _697  and  _698
REMARK  288  A    between atoms: _697  and  _700
REMARK  289  A    between atoms: _700  and  _701
REMARK  290  A    between atoms: _704  and  _706
REMARK  291  A    between atoms: _706  and  _707
REMARK  292  A    between atoms: _706  and  _709
REMARK  293  A    between atoms: _709  and  _710
REMARK                            x       y       z     vdW  Elec       q    Type
REMARK                         _______ _______ _______ _____ _____    ______ ____
ROOT
ATOM      1  O   HOH     1      62.693   7.454   9.050  0.00  0.00    +0.000 OA
ENDROOT
TORSDOF 0
REMARK  Name = ../refined-set-2016/2o4r/2o4r_pocket.pdb
REMARK  293 active torsions:
REMARK  status: ('A' for Active; 'I' for Inactive)
REMARK    1  A    between atoms: _1  and  _3
REMARK    2  A    between atoms: _3  and  _4
REMARK    3  A    between atoms: _3  and  _6
REMARK    4  A    between atoms: _6  and  _7
REMARK    5  A    between atoms: _10  and  _12
REMARK    6  A    between atoms: _12  and  _13
REMARK    7  A    between atoms: _12  and  _15
REMARK    8  A    between atoms: _15  and  _16
REMARK    9  A    between atoms: _21  and  _22
REMARK   10  A    between atoms: _24  and  _26
REMARK   11  A    between atoms: _26  and  _27
REMARK   12  A    between atoms: _26  and  _29
REMARK   13  A    between atoms: _29  and  _30
REMARK   14  A    between atoms: _34  and  _35
REMARK   15  A    between atoms: _40  and  _42
REMARK   16  A    between atoms: _42  and  _43
REMARK   17  A    between atoms: _42  and  _45
REMARK   18  A    between atoms: _45  and  _46
REMARK   19  A    between atoms: _51  and  _52
REMARK   20  A    between atoms: _54  and  _56
REMARK   21  A    between atoms: _56  and  _57
REMARK   22  A    between atoms: _56  and  _59
REMARK   23  A    between atoms: _59  and  _60
REMARK   24  A    between atoms: _66  and  _68
REMARK   25  A    between atoms: _68  and  _69
REMARK   26  A    between atoms: _68  and  _71
REMARK   27  A    between atoms: _71  and  _72
REMARK   28  A    between atoms: _78  and  _80
REMARK   29  A    between atoms: _80  and  _81
REMARK   30  A    between atoms: _80  and  _83
REMARK   31  A    between atoms: _83  and  _84
REMARK   32  A    between atoms: _84  and  _85
REMARK   33  A    between atoms: _85  and  _86
REMARK   34  A    between atoms: _95  and  _97
REMARK   35  A    between atoms: _97  and  _98
REMARK   36  A    between atoms: _97  and  _100
REMARK   37  A    between atoms: _100  and  _101
REMARK   38  A    between atoms: _101  and  _102
REMARK   39  A    between atoms: _104  and  _106
REMARK   40  A    between atoms: _106  and  _107
REMARK   41  A    between atoms: _106  and  _109
REMARK   42  A    between atoms: _109  and  _110
REMARK   43  A    between atoms: _114  and  _115
REMARK   44  A    between atoms: _120  and  _122
REMARK   45  A    between atoms: _122  and  _123
REMARK   46  A    between atoms: _122  and  _125
REMARK   47  A    between atoms: _125  and  _126
REMARK   48  A    between atoms: _131  and  _133
REMARK   49  A    between atoms: _133  and  _134
REMARK   50  A    between atoms: _133  and  _136
REMARK   51  A    between atoms: _136  and  _137
REMARK   52  A    between atoms: _140  and  _142
REMARK   53  A    between atoms: _142  and  _143
REMARK   54  A    between atoms: _146  and  _148
REMARK   55  A    between atoms: _148  and  _149
REMARK   56  A    between atoms: _148  and  _151
REMARK   57  A    between atoms: _151  and  _152
REMARK   58  A    between atoms: _155  and  _157
REMARK   59  A    between atoms: _157  and  _158
REMARK   60  A    between atoms: _157  and  _160
REMARK   61  A    between atoms: _160  and  _161
REMARK   62  A    between atoms: _164  and  _166
REMARK   63  A    between atoms: _166  and  _167
REMARK   64  A    between atoms: _166  and  _169
REMARK   65  A    between atoms: _172  and  _174
REMARK   66  A    between atoms: _174  and  _175
REMARK   67  A    between atoms: _174  and  _177
REMARK   68  A    between atoms: _177  and  _178
REMARK   69  A    between atoms: _180  and  _182
REMARK   70  A    between atoms: _182  and  _183
REMARK   71  A    between atoms: _182  and  _185
REMARK   72  A    between atoms: _185  and  _186
REMARK   73  A    between atoms: _191  and  _192
REMARK   74  A    between atoms: _194  and  _196
REMARK   75  A    between atoms: _196  and  _197
REMARK   76  A    between atoms: _196  and  _199
REMARK   77  A    between atoms: _199  and  _200
REMARK   78  A    between atoms: _202  and  _204
REMARK   79  A    between atoms: _204  and  _205
REMARK   80  A    between atoms: _204  and  _207
REMARK   81  A    between atoms: _207  and  _208
REMARK   82  A    between atoms: _211  and  _213
REMARK   83  A    between atoms: _213  and  _214
REMARK   84  A    between atoms: _213  and  _216
REMARK   85  A    between atoms: _216  and  _217
REMARK   86  A    between atoms: _217  and  _218
REMARK   87  A    between atoms: _218  and  _219
REMARK   88  A    between atoms: _219  and  _220
REMARK   89  A    between atoms: _224  and  _226
REMARK   90  A    between atoms: _226  and  _227
REMARK   91  A    between atoms: _226  and  _229
REMARK   92  A    between atoms: _232  and  _234
REMARK   93  A    between atoms: _234  and  _235
REMARK   94  A    between atoms: _238  and  _240
REMARK   95  A    between atoms: _240  and  _241
REMARK   96  A    between atoms: _240  and  _243
REMARK   97  A    between atoms: _243  and  _244
REMARK   98  A    between atoms: _247  and  _249
REMARK   99  A    between atoms: _249  and  _250
REMARK  100  A    between atoms: _249  and  _252
REMARK  101  A    between atoms: _252  and  _253
REMARK  102  A    between atoms: _253  and  _254
REMARK  103  A    between atoms: _257  and  _259
REMARK  104  A    between atoms: _259  and  _260
REMARK  105  A    between atoms: _259  and  _262
REMARK  106  A    between atoms: _265  and  _267
REMARK  107  A    between atoms: _267  and  _268
REMARK  108  A    between atoms: _267  and  _270
REMARK  109  A    between atoms: _270  and  _271
REMARK  110  A    between atoms: _274  and  _276
REMARK  111  A    between atoms: _276  and  _277
REMARK  112  A    between atoms: _276  and  _279
REMARK  113  A    between atoms: _279  and  _280
REMARK  114  A    between atoms: _280  and  _281
REMARK  115  A    between atoms: _283  and  _285
REMARK  116  A    between atoms: _285  and  _286
REMARK  117  A    between atoms: _285  and  _288
REMARK  118  A    between atoms: _288  and  _289
REMARK  119  A    between atoms: _292  and  _294
REMARK  120  A    between atoms: _294  and  _295
REMARK  121  A    between atoms: _294  and  _297
REMARK  122  A    between atoms: _297  and  _298
REMARK  123  A    between atoms: _298  and  _299
REMARK  124  A    between atoms: _299  and  _300
REMARK  125  A    between atoms: _309  and  _311
REMARK  126  A    between atoms: _311  and  _312
REMARK  127  A    between atoms: _311  and  _314
REMARK  128  A    between atoms: _314  and  _315
REMARK  129  A    between atoms: _317  and  _319
REMARK  130  A    between atoms: _319  and  _320
REMARK  131  A    between atoms: _319  and  _322
REMARK  132  A    between atoms: _322  and  _323
REMARK  133  A    between atoms: _328  and  _330
REMARK  134  A    between atoms: _330  and  _331
REMARK  135  A    between atoms: _330  and  _333
REMARK  136  A    between atoms: _333  and  _334
REMARK  137  A    between atoms: _334  and  _335
REMARK  138  A    between atoms: _340  and  _342
REMARK  139  A    between atoms: _342  and  _343
REMARK  140  A    between atoms: _342  and  _345
REMARK  141  A    between atoms: _345  and  _346
REMARK  142  A    between atoms: _348  and  _350
REMARK  143  A    between atoms: _350  and  _351
REMARK  144  A    between atoms: _350  and  _353
REMARK  145  A    between atoms: _353  and  _354
REMARK  146  A    between atoms: _360  and  _362
REMARK  147  A    between atoms: _362  and  _363
REMARK  148  A    between atoms: _362  and  _365
REMARK  149  A    between atoms: _365  and  _366
REMARK  150  A    between atoms: _368  and  _370
REMARK  151  A    between atoms: _370  and  _371
REMARK  152  A    between atoms: _370  and  _373
REMARK  153  A    between atoms: _373  and  _374
REMARK  154  A    between atoms: _384  and  _386
REMARK  155  A    between atoms: _386  and  _387
REMARK  156  A    between atoms: _386  and  _389
REMARK  157  A    between atoms: _389  and  _390
REMARK  158  A    between atoms: _393  and  _395
REMARK  159  A    between atoms: _395  and  _396
REMARK  160  A    between atoms: _395  and  _398
REMARK  161  A    between atoms: _400  and  _402
REMARK  162  A    between atoms: _402  and  _403
REMARK  163  A    between atoms: _402  and  _405
REMARK  164  A    between atoms: _405  and  _406
REMARK  165  A    between atoms: _411  and  _412
REMARK  166  A    between atoms: _414  and  _416
REMARK  167  A    between atoms: _416  and  _417
REMARK  168  A    between atoms: _416  and  _419
REMARK  169  A    between atoms: _419  and  _420
REMARK  170  A    between atoms: _420  and  _421
REMARK  171  A    between atoms: _421  and  _422
REMARK  172  A    between atoms: _422  and  _423
REMARK  173  A    between atoms: _427  and  _429
REMARK  174  A    between atoms: _429  and  _430
REMARK  175  A    between atoms: _429  and  _432
REMARK  176  A    between atoms: _432  and  _433
REMARK  177  A    between atoms: _438  and  _439
REMARK  178  A    between atoms: _441  and  _443
REMARK  179  A    between atoms: _443  and  _444
REMARK  180  A    between atoms: _443  and  _446
REMARK  181  A    between atoms: _446  and  _447
REMARK  182  A    between atoms: _450  and  _452
REMARK  183  A    between atoms: _452  and  _453
REMARK  184  A    between atoms: _452  and  _455
REMARK  185  A    between atoms: _458  and  _460
REMARK  186  A    between atoms: _460  and  _461
REMARK  187  A    between atoms: _460  and  _463
REMARK  188  A    between atoms: _463  and  _464
REMARK  189  A    between atoms: _467  and  _469
REMARK  190  A    between atoms: _469  and  _470
REMARK  191  A    between atoms: _469  and  _472
REMARK  192  A    between atoms: _475  and  _477
REMARK  193  A    between atoms: _477  and  _478
REMARK  194  A    between atoms: _477  and  _480
REMARK  195  A    between atoms: _480  and  _481
REMARK  196  A    between atoms: _483  and  _485
REMARK  197  A    between atoms: _485  and  _486
REMARK  198  A    between atoms: _485  and  _488
REMARK  199  A    between atoms: _488  and  _489
REMARK  200  A    between atoms: _489  and  _490
REMARK  201  A    between atoms: _490  and  _491
REMARK  202  A    between atoms: _491  and  _492
REMARK  203  A    between atoms: _496  and  _498
REMARK  204  A    between atoms: _498  and  _499
REMARK  205  A    between atoms: _502  and  _504
REMARK  206  A    between atoms: _504  and  _505
REMARK  207  A    between atoms: _507  and  _509
REMARK  208  A    between atoms: _509  and  _510
REMARK  209  A    between atoms: _509  and  _512
REMARK  210  A    between atoms: _512  and  _513
REMARK  211  A    between atoms: _518  and  _520
REMARK  212  A    between atoms: _520  and  _521
REMARK  213  A    between atoms: _520  and  _523
REMARK  214  A    between atoms: _523  and  _524
REMARK  215  A    between atoms: _527  and  _529
REMARK  216  A    between atoms: _529  and  _530
REMARK  217  A    between atoms: _529  and  _532
REMARK  218  A    between atoms: _532  and  _533
REMARK  219  A    between atoms: _536  and  _538
REMARK  220  A    between atoms: _538  and  _539
REMARK  221  A    between atoms: _538  and  _541
REMARK  222  A    between atoms: _541  and  _542
REMARK  223  A    between atoms: _545  and  _547
REMARK  224  A    between atoms: _547  and  _548
REMARK  225  A    between atoms: _547  and  _550
REMARK  226  A    between atoms: _550  and  _551
REMARK  227  A    between atoms: _554  and  _556
REMARK  228  A    between atoms: _556  and  _557
REMARK  229  A    between atoms: _556  and  _559
REMARK  230  A    between atoms: _559  and  _560
REMARK  231  A    between atoms: _560  and  _561
REMARK  232  A    between atoms: _566  and  _568
REMARK  233  A    between atoms: _568  and  _569
REMARK  234  A    between atoms: _568  and  _571
REMARK  235  A    between atoms: _571  and  _572
REMARK  236  A    between atoms: _577  and  _579
REMARK  237  A    between atoms: _579  and  _580
REMARK  238  A    between atoms: _579  and  _582
REMARK  239  A    between atoms: _582  and  _583
REMARK  240  A    between atoms: _585  and  _587
REMARK  241  A    between atoms: _587  and  _588
REMARK  242  A    between atoms: _587  and  _590
REMARK  243  A    between atoms: _590  and  _591
REMARK  244  A    between atoms: _591  and  _592
REMARK  245  A    between atoms: _597  and  _599
REMARK  246  A    between atoms: _599  and  _600
REMARK  247  A    between atoms: _599  and  _602
REMARK  248  A    between atoms: _602  and  _603
REMARK  249  A    between atoms: _608  and  _609
REMARK  250  A    between atoms: _611  and  _613
REMARK  251  A    between atoms: _613  and  _614
REMARK  252  A    between atoms: _613  and  _616
REMARK  253  A    between atoms: _616  and  _617
REMARK  254  A    between atoms: _617  and  _618
REMARK  255  A    between atoms: _618  and  _619
REMARK  256  A    between atoms: _628  and  _630
REMARK  257  A    between atoms: _630  and  _631
REMARK  258  A    between atoms: _630  and  _633
REMARK  259  A    between atoms: _633  and  _634
REMARK  260  A    between atoms: _637  and  _639
REMARK  261  A    between atoms: _639  and  _640
REMARK  262  A    between atoms: _639  and  _642
REMARK  263  A    between atoms: _642  and  _643
REMARK  264  A    between atoms: _645  and  _647
REMARK  265  A    between atoms: _647  and  _648
REMARK  266  A    between atoms: _647  and  _650
REMARK  267  A    between atoms: _650  and  _651
REMARK  268  A    between atoms: _656  and  _658
REMARK  269  A    between atoms: _658  and  _659
REMARK  270  A    between atoms: _658  and  _661
REMARK  271  A    between atoms: _661  and  _662
REMARK  272  A    between atoms: _662  and  _663
REMARK  273  A    between atoms: _663  and  _664
REMARK  274  A    between atoms: _664  and  _665
REMARK  275  A    between atoms: _669  and  _671
REMARK  276  A    between atoms: _671  and  _672
REMARK  277  A    between atoms: _671  and  _674
REMARK  278  A    between atoms: _674  and  _675
REMARK  279  A    between atoms: _678  and  _680
REMARK  280  A    between atoms: _680  and  _681
REMARK  281  A    between atoms: _680  and  _683
REMARK  282  A    between atoms: _683  and  _684
REMARK  283  A    between atoms: _687  and  _689
REMARK  284  A    between atoms: _689  and  _690
REMARK  285  A    between atoms: _689  and  _692
REMARK  286  A    between atoms: _695  and  _697
REMARK  287  A    between atoms: _697  and  _698
REMARK  288  A    between atoms: _697  and  _700
REMARK  289  A    between atoms: _700  and  _701
REMARK  290  A    between atoms: _704  and  _706
REMARK  291  A    between atoms: _706  and  _707
REMARK  292  A    between atoms: _706  and  _709
REMARK  293  A    between atoms: _709  and  _710
REMARK                            x       y       z     vdW  Elec       q    Type
REMARK                         _______ _______ _______ _____ _____    ______ ____
ROOT
ATOM      1  O   HOH     1      56.339  13.981   3.099  0.00  0.00    +0.000 OA
ENDROOT
TORSDOF 0
REMARK  Name = ../refined-set-2016/2o4r/2o4r_pocket.pdb
REMARK  293 active torsions:
REMARK  status: ('A' for Active; 'I' for Inactive)
REMARK    1  A    between atoms: _1  and  _3
REMARK    2  A    between atoms: _3  and  _4
REMARK    3  A    between atoms: _3  and  _6
REMARK    4  A    between atoms: _6  and  _7
REMARK    5  A    between atoms: _10  and  _12
REMARK    6  A    between atoms: _12  and  _13
REMARK    7  A    between atoms: _12  and  _15
REMARK    8  A    between atoms: _15  and  _16
REMARK    9  A    between atoms: _21  and  _22
REMARK   10  A    between atoms: _24  and  _26
REMARK   11  A    between atoms: _26  and  _27
REMARK   12  A    between atoms: _26  and  _29
REMARK   13  A    between atoms: _29  and  _30
REMARK   14  A    between atoms: _34  and  _35
REMARK   15  A    between atoms: _40  and  _42
REMARK   16  A    between atoms: _42  and  _43
REMARK   17  A    between atoms: _42  and  _45
REMARK   18  A    between atoms: _45  and  _46
REMARK   19  A    between atoms: _51  and  _52
REMARK   20  A    between atoms: _54  and  _56
REMARK   21  A    between atoms: _56  and  _57
REMARK   22  A    between atoms: _56  and  _59
REMARK   23  A    between atoms: _59  and  _60
REMARK   24  A    between atoms: _66  and  _68
REMARK   25  A    between atoms: _68  and  _69
REMARK   26  A    between atoms: _68  and  _71
REMARK   27  A    between atoms: _71  and  _72
REMARK   28  A    between atoms: _78  and  _80
REMARK   29  A    between atoms: _80  and  _81
REMARK   30  A    between atoms: _80  and  _83
REMARK   31  A    between atoms: _83  and  _84
REMARK   32  A    between atoms: _84  and  _85
REMARK   33  A    between atoms: _85  and  _86
REMARK   34  A    between atoms: _95  and  _97
REMARK   35  A    between atoms: _97  and  _98
REMARK   36  A    between atoms: _97  and  _100
REMARK   37  A    between atoms: _100  and  _101
REMARK   38  A    between atoms: _101  and  _102
REMARK   39  A    between atoms: _104  and  _106
REMARK   40  A    between atoms: _106  and  _107
REMARK   41  A    between atoms: _106  and  _109
REMARK   42  A    between atoms: _109  and  _110
REMARK   43  A    between atoms: _114  and  _115
REMARK   44  A    between atoms: _120  and  _122
REMARK   45  A    between atoms: _122  and  _123
REMARK   46  A    between atoms: _122  and  _125
REMARK   47  A    between atoms: _125  and  _126
REMARK   48  A    between atoms: _131  and  _133
REMARK   49  A    between atoms: _133  and  _134
REMARK   50  A    between atoms: _133  and  _136
REMARK   51  A    between atoms: _136  and  _137
REMARK   52  A    between atoms: _140  and  _142
REMARK   53  A    between atoms: _142  and  _143
REMARK   54  A    between atoms: _146  and  _148
REMARK   55  A    between atoms: _148  and  _149
REMARK   56  A    between atoms: _148  and  _151
REMARK   57  A    between atoms: _151  and  _152
REMARK   58  A    between atoms: _155  and  _157
REMARK   59  A    between atoms: _157  and  _158
REMARK   60  A    between atoms: _157  and  _160
REMARK   61  A    between atoms: _160  and  _161
REMARK   62  A    between atoms: _164  and  _166
REMARK   63  A    between atoms: _166  and  _167
REMARK   64  A    between atoms: _166  and  _169
REMARK   65  A    between atoms: _172  and  _174
REMARK   66  A    between atoms: _174  and  _175
REMARK   67  A    between atoms: _174  and  _177
REMARK   68  A    between atoms: _177  and  _178
REMARK   69  A    between atoms: _180  and  _182
REMARK   70  A    between atoms: _182  and  _183
REMARK   71  A    between atoms: _182  and  _185
REMARK   72  A    between atoms: _185  and  _186
REMARK   73  A    between atoms: _191  and  _192
REMARK   74  A    between atoms: _194  and  _196
REMARK   75  A    between atoms: _196  and  _197
REMARK   76  A    between atoms: _196  and  _199
REMARK   77  A    between atoms: _199  and  _200
REMARK   78  A    between atoms: _202  and  _204
REMARK   79  A    between atoms: _204  and  _205
REMARK   80  A    between atoms: _204  and  _207
REMARK   81  A    between atoms: _207  and  _208
REMARK   82  A    between atoms: _211  and  _213
REMARK   83  A    between atoms: _213  and  _214
REMARK   84  A    between atoms: _213  and  _216
REMARK   85  A    between atoms: _216  and  _217
REMARK   86  A    between atoms: _217  and  _218
REMARK   87  A    between atoms: _218  and  _219
REMARK   88  A    between atoms: _219  and  _220
REMARK   89  A    between atoms: _224  and  _226
REMARK   90  A    between atoms: _226  and  _227
REMARK   91  A    between atoms: _226  and  _229
REMARK   92  A    between atoms: _232  and  _234
REMARK   93  A    between atoms: _234  and  _235
REMARK   94  A    between atoms: _238  and  _240
REMARK   95  A    between atoms: _240  and  _241
REMARK   96  A    between atoms: _240  and  _243
REMARK   97  A    between atoms: _243  and  _244
REMARK   98  A    between atoms: _247  and  _249
REMARK   99  A    between atoms: _249  and  _250
REMARK  100  A    between atoms: _249  and  _252
REMARK  101  A    between atoms: _252  and  _253
REMARK  102  A    between atoms: _253  and  _254
REMARK  103  A    between atoms: _257  and  _259
REMARK  104  A    between atoms: _259  and  _260
REMARK  105  A    between atoms: _259  and  _262
REMARK  106  A    between atoms: _265  and  _267
REMARK  107  A    between atoms: _267  and  _268
REMARK  108  A    between atoms: _267  and  _270
REMARK  109  A    between atoms: _270  and  _271
REMARK  110  A    between atoms: _274  and  _276
REMARK  111  A    between atoms: _276  and  _277
REMARK  112  A    between atoms: _276  and  _279
REMARK  113  A    between atoms: _279  and  _280
REMARK  114  A    between atoms: _280  and  _281
REMARK  115  A    between atoms: _283  and  _285
REMARK  116  A    between atoms: _285  and  _286
REMARK  117  A    between atoms: _285  and  _288
REMARK  118  A    between atoms: _288  and  _289
REMARK  119  A    between atoms: _292  and  _294
REMARK  120  A    between atoms: _294  and  _295
REMARK  121  A    between atoms: _294  and  _297
REMARK  122  A    between atoms: _297  and  _298
REMARK  123  A    between atoms: _298  and  _299
REMARK  124  A    between atoms: _299  and  _300
REMARK  125  A    between atoms: _309  and  _311
REMARK  126  A    between atoms: _311  and  _312
REMARK  127  A    between atoms: _311  and  _314
REMARK  128  A    between atoms: _314  and  _315
REMARK  129  A    between atoms: _317  and  _319
REMARK  130  A    between atoms: _319  and  _320
REMARK  131  A    between atoms: _319  and  _322
REMARK  132  A    between atoms: _322  and  _323
REMARK  133  A    between atoms: _328  and  _330
REMARK  134  A    between atoms: _330  and  _331
REMARK  135  A    between atoms: _330  and  _333
REMARK  136  A    between atoms: _333  and  _334
REMARK  137  A    between atoms: _334  and  _335
REMARK  138  A    between atoms: _340  and  _342
REMARK  139  A    between atoms: _342  and  _343
REMARK  140  A    between atoms: _342  and  _345
REMARK  141  A    between atoms: _345  and  _346
REMARK  142  A    between atoms: _348  and  _350
REMARK  143  A    between atoms: _350  and  _351
REMARK  144  A    between atoms: _350  and  _353
REMARK  145  A    between atoms: _353  and  _354
REMARK  146  A    between atoms: _360  and  _362
REMARK  147  A    between atoms: _362  and  _363
REMARK  148  A    between atoms: _362  and  _365
REMARK  149  A    between atoms: _365  and  _366
REMARK  150  A    between atoms: _368  and  _370
REMARK  151  A    between atoms: _370  and  _371
REMARK  152  A    between atoms: _370  and  _373
REMARK  153  A    between atoms: _373  and  _374
REMARK  154  A    between atoms: _384  and  _386
REMARK  155  A    between atoms: _386  and  _387
REMARK  156  A    between atoms: _386  and  _389
REMARK  157  A    between atoms: _389  and  _390
REMARK  158  A    between atoms: _393  and  _395
REMARK  159  A    between atoms: _395  and  _396
REMARK  160  A    between atoms: _395  and  _398
REMARK  161  A    between atoms: _400  and  _402
REMARK  162  A    between atoms: _402  and  _403
REMARK  163  A    between atoms: _402  and  _405
REMARK  164  A    between atoms: _405  and  _406
REMARK  165  A    between atoms: _411  and  _412
REMARK  166  A    between atoms: _414  and  _416
REMARK  167  A    between atoms: _416  and  _417
REMARK  168  A    between atoms: _416  and  _419
REMARK  169  A    between atoms: _419  and  _420
REMARK  170  A    between atoms: _420  and  _421
REMARK  171  A    between atoms: _421  and  _422
REMARK  172  A    between atoms: _422  and  _423
REMARK  173  A    between atoms: _427  and  _429
REMARK  174  A    between atoms: _429  and  _430
REMARK  175  A    between atoms: _429  and  _432
REMARK  176  A    between atoms: _432  and  _433
REMARK  177  A    between atoms: _438  and  _439
REMARK  178  A    between atoms: _441  and  _443
REMARK  179  A    between atoms: _443  and  _444
REMARK  180  A    between atoms: _443  and  _446
REMARK  181  A    between atoms: _446  and  _447
REMARK  182  A    between atoms: _450  and  _452
REMARK  183  A    between atoms: _452  and  _453
REMARK  184  A    between atoms: _452  and  _455
REMARK  185  A    between atoms: _458  and  _460
REMARK  186  A    between atoms: _460  and  _461
REMARK  187  A    between atoms: _460  and  _463
REMARK  188  A    between atoms: _463  and  _464
REMARK  189  A    between atoms: _467  and  _469
REMARK  190  A    between atoms: _469  and  _470
REMARK  191  A    between atoms: _469  and  _472
REMARK  192  A    between atoms: _475  and  _477
REMARK  193  A    between atoms: _477  and  _478
REMARK  194  A    between atoms: _477  and  _480
REMARK  195  A    between atoms: _480  and  _481
REMARK  196  A    between atoms: _483  and  _485
REMARK  197  A    between atoms: _485  and  _486
REMARK  198  A    between atoms: _485  and  _488
REMARK  199  A    between atoms: _488  and  _489
REMARK  200  A    between atoms: _489  and  _490
REMARK  201  A    between atoms: _490  and  _491
REMARK  202  A    between atoms: _491  and  _492
REMARK  203  A    between atoms: _496  and  _498
REMARK  204  A    between atoms: _498  and  _499
REMARK  205  A    between atoms: _502  and  _504
REMARK  206  A    between atoms: _504  and  _505
REMARK  207  A    between atoms: _507  and  _509
REMARK  208  A    between atoms: _509  and  _510
REMARK  209  A    between atoms: _509  and  _512
REMARK  210  A    between atoms: _512  and  _513
REMARK  211  A    between atoms: _518  and  _520
REMARK  212  A    between atoms: _520  and  _521
REMARK  213  A    between atoms: _520  and  _523
REMARK  214  A    between atoms: _523  and  _524
REMARK  215  A    between atoms: _527  and  _529
REMARK  216  A    between atoms: _529  and  _530
REMARK  217  A    between atoms: _529  and  _532
REMARK  218  A    between atoms: _532  and  _533
REMARK  219  A    between atoms: _536  and  _538
REMARK  220  A    between atoms: _538  and  _539
REMARK  221  A    between atoms: _538  and  _541
REMARK  222  A    between atoms: _541  and  _542
REMARK  223  A    between atoms: _545  and  _547
REMARK  224  A    between atoms: _547  and  _548
REMARK  225  A    between atoms: _547  and  _550
REMARK  226  A    between atoms: _550  and  _551
REMARK  227  A    between atoms: _554  and  _556
REMARK  228  A    between atoms: _556  and  _557
REMARK  229  A    between atoms: _556  and  _559
REMARK  230  A    between atoms: _559  and  _560
REMARK  231  A    between atoms: _560  and  _561
REMARK  232  A    between atoms: _566  and  _568
REMARK  233  A    between atoms: _568  and  _569
REMARK  234  A    between atoms: _568  and  _571
REMARK  235  A    between atoms: _571  and  _572
REMARK  236  A    between atoms: _577  and  _579
REMARK  237  A    between atoms: _579  and  _580
REMARK  238  A    between atoms: _579  and  _582
REMARK  239  A    between atoms: _582  and  _583
REMARK  240  A    between atoms: _585  and  _587
REMARK  241  A    between atoms: _587  and  _588
REMARK  242  A    between atoms: _587  and  _590
REMARK  243  A    between atoms: _590  and  _591
REMARK  244  A    between atoms: _591  and  _592
REMARK  245  A    between atoms: _597  and  _599
REMARK  246  A    between atoms: _599  and  _600
REMARK  247  A    between atoms: _599  and  _602
REMARK  248  A    between atoms: _602  and  _603
REMARK  249  A    between atoms: _608  and  _609
REMARK  250  A    between atoms: _611  and  _613
REMARK  251  A    between atoms: _613  and  _614
REMARK  252  A    between atoms: _613  and  _616
REMARK  253  A    between atoms: _616  and  _617
REMARK  254  A    between atoms: _617  and  _618
REMARK  255  A    between atoms: _618  and  _619
REMARK  256  A    between atoms: _628  and  _630
REMARK  257  A    between atoms: _630  and  _631
REMARK  258  A    between atoms: _630  and  _633
REMARK  259  A    between atoms: _633  and  _634
REMARK  260  A    between atoms: _637  and  _639
REMARK  261  A    between atoms: _639  and  _640
REMARK  262  A    between atoms: _639  and  _642
REMARK  263  A    between atoms: _642  and  _643
REMARK  264  A    between atoms: _645  and  _647
REMARK  265  A    between atoms: _647  and  _648
REMARK  266  A    between atoms: _647  and  _650
REMARK  267  A    between atoms: _650  and  _651
REMARK  268  A    between atoms: _656  and  _658
REMARK  269  A    between atoms: _658  and  _659
REMARK  270  A    between atoms: _658  and  _661
REMARK  271  A    between atoms: _661  and  _662
REMARK  272  A    between atoms: _662  and  _663
REMARK  273  A    between atoms: _663  and  _664
REMARK  274  A    between atoms: _664  and  _665
REMARK  275  A    between atoms: _669  and  _671
REMARK  276  A    between atoms: _671  and  _672
REMARK  277  A    between atoms: _671  and  _674
REMARK  278  A    between atoms: _674  and  _675
REMARK  279  A    between atoms: _678  and  _680
REMARK  280  A    between atoms: _680  and  _681
REMARK  281  A    between atoms: _680  and  _683
REMARK  282  A    between atoms: _683  and  _684
REMARK  283  A    between atoms: _687  and  _689
REMARK  284  A    between atoms: _689  and  _690
REMARK  285  A    between atoms: _689  and  _692
REMARK  286  A    between atoms: _695  and  _697
REMARK  287  A    between atoms: _697  and  _698
REMARK  288  A    between atoms: _697  and  _700
REMARK  289  A    between atoms: _700  and  _701
REMARK  290  A    between atoms: _704  and  _706
REMARK  291  A    between atoms: _706  and  _707
REMARK  292  A    between atoms: _706  and  _709
REMARK  293  A    between atoms: _709  and  _710
REMARK                            x       y       z     vdW  Elec       q    Type
REMARK                         _______ _______ _______ _____ _____    ______ ____
ROOT
ATOM      1  O   HOH     1      63.708  -9.921  -5.728  0.00  0.00    +0.000 OA
ENDROOT
TORSDOF 0
REMARK  Name = ../refined-set-2016/2o4r/2o4r_pocket.pdb
REMARK  293 active torsions:
REMARK  status: ('A' for Active; 'I' for Inactive)
REMARK    1  A    between atoms: _1  and  _3
REMARK    2  A    between atoms: _3  and  _4
REMARK    3  A    between atoms: _3  and  _6
REMARK    4  A    between atoms: _6  and  _7
REMARK    5  A    between atoms: _10  and  _12
REMARK    6  A    between atoms: _12  and  _13
REMARK    7  A    between atoms: _12  and  _15
REMARK    8  A    between atoms: _15  and  _16
REMARK    9  A    between atoms: _21  and  _22
REMARK   10  A    between atoms: _24  and  _26
REMARK   11  A    between atoms: _26  and  _27
REMARK   12  A    between atoms: _26  and  _29
REMARK   13  A    between atoms: _29  and  _30
REMARK   14  A    between atoms: _34  and  _35
REMARK   15  A    between atoms: _40  and  _42
REMARK   16  A    between atoms: _42  and  _43
REMARK   17  A    between atoms: _42  and  _45
REMARK   18  A    between atoms: _45  and  _46
REMARK   19  A    between atoms: _51  and  _52
REMARK   20  A    between atoms: _54  and  _56
REMARK   21  A    between atoms: _56  and  _57
REMARK   22  A    between atoms: _56  and  _59
REMARK   23  A    between atoms: _59  and  _60
REMARK   24  A    between atoms: _66  and  _68
REMARK   25  A    between atoms: _68  and  _69
REMARK   26  A    between atoms: _68  and  _71
REMARK   27  A    between atoms: _71  and  _72
REMARK   28  A    between atoms: _78  and  _80
REMARK   29  A    between atoms: _80  and  _81
REMARK   30  A    between atoms: _80  and  _83
REMARK   31  A    between atoms: _83  and  _84
REMARK   32  A    between atoms: _84  and  _85
REMARK   33  A    between atoms: _85  and  _86
REMARK   34  A    between atoms: _95  and  _97
REMARK   35  A    between atoms: _97  and  _98
REMARK   36  A    between atoms: _97  and  _100
REMARK   37  A    between atoms: _100  and  _101
REMARK   38  A    between atoms: _101  and  _102
REMARK   39  A    between atoms: _104  and  _106
REMARK   40  A    between atoms: _106  and  _107
REMARK   41  A    between atoms: _106  and  _109
REMARK   42  A    between atoms: _109  and  _110
REMARK   43  A    between atoms: _114  and  _115
REMARK   44  A    between atoms: _120  and  _122
REMARK   45  A    between atoms: _122  and  _123
REMARK   46  A    between atoms: _122  and  _125
REMARK   47  A    between atoms: _125  and  _126
REMARK   48  A    between atoms: _131  and  _133
REMARK   49  A    between atoms: _133  and  _134
REMARK   50  A    between atoms: _133  and  _136
REMARK   51  A    between atoms: _136  and  _137
REMARK   52  A    between atoms: _140  and  _142
REMARK   53  A    between atoms: _142  and  _143
REMARK   54  A    between atoms: _146  and  _148
REMARK   55  A    between atoms: _148  and  _149
REMARK   56  A    between atoms: _148  and  _151
REMARK   57  A    between atoms: _151  and  _152
REMARK   58  A    between atoms: _155  and  _157
REMARK   59  A    between atoms: _157  and  _158
REMARK   60  A    between atoms: _157  and  _160
REMARK   61  A    between atoms: _160  and  _161
REMARK   62  A    between atoms: _164  and  _166
REMARK   63  A    between atoms: _166  and  _167
REMARK   64  A    between atoms: _166  and  _169
REMARK   65  A    between atoms: _172  and  _174
REMARK   66  A    between atoms: _174  and  _175
REMARK   67  A    between atoms: _174  and  _177
REMARK   68  A    between atoms: _177  and  _178
REMARK   69  A    between atoms: _180  and  _182
REMARK   70  A    between atoms: _182  and  _183
REMARK   71  A    between atoms: _182  and  _185
REMARK   72  A    between atoms: _185  and  _186
REMARK   73  A    between atoms: _191  and  _192
REMARK   74  A    between atoms: _194  and  _196
REMARK   75  A    between atoms: _196  and  _197
REMARK   76  A    between atoms: _196  and  _199
REMARK   77  A    between atoms: _199  and  _200
REMARK   78  A    between atoms: _202  and  _204
REMARK   79  A    between atoms: _204  and  _205
REMARK   80  A    between atoms: _204  and  _207
REMARK   81  A    between atoms: _207  and  _208
REMARK   82  A    between atoms: _211  and  _213
REMARK   83  A    between atoms: _213  and  _214
REMARK   84  A    between atoms: _213  and  _216
REMARK   85  A    between atoms: _216  and  _217
REMARK   86  A    between atoms: _217  and  _218
REMARK   87  A    between atoms: _218  and  _219
REMARK   88  A    between atoms: _219  and  _220
REMARK   89  A    between atoms: _224  and  _226
REMARK   90  A    between atoms: _226  and  _227
REMARK   91  A    between atoms: _226  and  _229
REMARK   92  A    between atoms: _232  and  _234
REMARK   93  A    between atoms: _234  and  _235
REMARK   94  A    between atoms: _238  and  _240
REMARK   95  A    between atoms: _240  and  _241
REMARK   96  A    between atoms: _240  and  _243
REMARK   97  A    between atoms: _243  and  _244
REMARK   98  A    between atoms: _247  and  _249
REMARK   99  A    between atoms: _249  and  _250
REMARK  100  A    between atoms: _249  and  _252
REMARK  101  A    between atoms: _252  and  _253
REMARK  102  A    between atoms: _253  and  _254
REMARK  103  A    between atoms: _257  and  _259
REMARK  104  A    between atoms: _259  and  _260
REMARK  105  A    between atoms: _259  and  _262
REMARK  106  A    between atoms: _265  and  _267
REMARK  107  A    between atoms: _267  and  _268
REMARK  108  A    between atoms: _267  and  _270
REMARK  109  A    between atoms: _270  and  _271
REMARK  110  A    between atoms: _274  and  _276
REMARK  111  A    between atoms: _276  and  _277
REMARK  112  A    between atoms: _276  and  _279
REMARK  113  A    between atoms: _279  and  _280
REMARK  114  A    between atoms: _280  and  _281
REMARK  115  A    between atoms: _283  and  _285
REMARK  116  A    between atoms: _285  and  _286
REMARK  117  A    between atoms: _285  and  _288
REMARK  118  A    between atoms: _288  and  _289
REMARK  119  A    between atoms: _292  and  _294
REMARK  120  A    between atoms: _294  and  _295
REMARK  121  A    between atoms: _294  and  _297
REMARK  122  A    between atoms: _297  and  _298
REMARK  123  A    between atoms: _298  and  _299
REMARK  124  A    between atoms: _299  and  _300
REMARK  125  A    between atoms: _309  and  _311
REMARK  126  A    between atoms: _311  and  _312
REMARK  127  A    between atoms: _311  and  _314
REMARK  128  A    between atoms: _314  and  _315
REMARK  129  A    between atoms: _317  and  _319
REMARK  130  A    between atoms: _319  and  _320
REMARK  131  A    between atoms: _319  and  _322
REMARK  132  A    between atoms: _322  and  _323
REMARK  133  A    between atoms: _328  and  _330
REMARK  134  A    between atoms: _330  and  _331
REMARK  135  A    between atoms: _330  and  _333
REMARK  136  A    between atoms: _333  and  _334
REMARK  137  A    between atoms: _334  and  _335
REMARK  138  A    between atoms: _340  and  _342
REMARK  139  A    between atoms: _342  and  _343
REMARK  140  A    between atoms: _342  and  _345
REMARK  141  A    between atoms: _345  and  _346
REMARK  142  A    between atoms: _348  and  _350
REMARK  143  A    between atoms: _350  and  _351
REMARK  144  A    between atoms: _350  and  _353
REMARK  145  A    between atoms: _353  and  _354
REMARK  146  A    between atoms: _360  and  _362
REMARK  147  A    between atoms: _362  and  _363
REMARK  148  A    between atoms: _362  and  _365
REMARK  149  A    between atoms: _365  and  _366
REMARK  150  A    between atoms: _368  and  _370
REMARK  151  A    between atoms: _370  and  _371
REMARK  152  A    between atoms: _370  and  _373
REMARK  153  A    between atoms: _373  and  _374
REMARK  154  A    between atoms: _384  and  _386
REMARK  155  A    between atoms: _386  and  _387
REMARK  156  A    between atoms: _386  and  _389
REMARK  157  A    between atoms: _389  and  _390
REMARK  158  A    between atoms: _393  and  _395
REMARK  159  A    between atoms: _395  and  _396
REMARK  160  A    between atoms: _395  and  _398
REMARK  161  A    between atoms: _400  and  _402
REMARK  162  A    between atoms: _402  and  _403
REMARK  163  A    between atoms: _402  and  _405
REMARK  164  A    between atoms: _405  and  _406
REMARK  165  A    between atoms: _411  and  _412
REMARK  166  A    between atoms: _414  and  _416
REMARK  167  A    between atoms: _416  and  _417
REMARK  168  A    between atoms: _416  and  _419
REMARK  169  A    between atoms: _419  and  _420
REMARK  170  A    between atoms: _420  and  _421
REMARK  171  A    between atoms: _421  and  _422
REMARK  172  A    between atoms: _422  and  _423
REMARK  173  A    between atoms: _427  and  _429
REMARK  174  A    between atoms: _429  and  _430
REMARK  175  A    between atoms: _429  and  _432
REMARK  176  A    between atoms: _432  and  _433
REMARK  177  A    between atoms: _438  and  _439
REMARK  178  A    between atoms: _441  and  _443
REMARK  179  A    between atoms: _443  and  _444
REMARK  180  A    between atoms: _443  and  _446
REMARK  181  A    between atoms: _446  and  _447
REMARK  182  A    between atoms: _450  and  _452
REMARK  183  A    between atoms: _452  and  _453
REMARK  184  A    between atoms: _452  and  _455
REMARK  185  A    between atoms: _458  and  _460
REMARK  186  A    between atoms: _460  and  _461
REMARK  187  A    between atoms: _460  and  _463
REMARK  188  A    between atoms: _463  and  _464
REMARK  189  A    between atoms: _467  and  _469
REMARK  190  A    between atoms: _469  and  _470
REMARK  191  A    between atoms: _469  and  _472
REMARK  192  A    between atoms: _475  and  _477
REMARK  193  A    between atoms: _477  and  _478
REMARK  194  A    between atoms: _477  and  _480
REMARK  195  A    between atoms: _480  and  _481
REMARK  196  A    between atoms: _483  and  _485
REMARK  197  A    between atoms: _485  and  _486
REMARK  198  A    between atoms: _485  and  _488
REMARK  199  A    between atoms: _488  and  _489
REMARK  200  A    between atoms: _489  and  _490
REMARK  201  A    between atoms: _490  and  _491
REMARK  202  A    between atoms: _491  and  _492
REMARK  203  A    between atoms: _496  and  _498
REMARK  204  A    between atoms: _498  and  _499
REMARK  205  A    between atoms: _502  and  _504
REMARK  206  A    between atoms: _504  and  _505
REMARK  207  A    between atoms: _507  and  _509
REMARK  208  A    between atoms: _509  and  _510
REMARK  209  A    between atoms: _509  and  _512
REMARK  210  A    between atoms: _512  and  _513
REMARK  211  A    between atoms: _518  and  _520
REMARK  212  A    between atoms: _520  and  _521
REMARK  213  A    between atoms: _520  and  _523
REMARK  214  A    between atoms: _523  and  _524
REMARK  215  A    between atoms: _527  and  _529
REMARK  216  A    between atoms: _529  and  _530
REMARK  217  A    between atoms: _529  and  _532
REMARK  218  A    between atoms: _532  and  _533
REMARK  219  A    between atoms: _536  and  _538
REMARK  220  A    between atoms: _538  and  _539
REMARK  221  A    between atoms: _538  and  _541
REMARK  222  A    between atoms: _541  and  _542
REMARK  223  A    between atoms: _545  and  _547
REMARK  224  A    between atoms: _547  and  _548
REMARK  225  A    between atoms: _547  and  _550
REMARK  226  A    between atoms: _550  and  _551
REMARK  227  A    between atoms: _554  and  _556
REMARK  228  A    between atoms: _556  and  _557
REMARK  229  A    between atoms: _556  and  _559
REMARK  230  A    between atoms: _559  and  _560
REMARK  231  A    between atoms: _560  and  _561
REMARK  232  A    between atoms: _566  and  _568
REMARK  233  A    between atoms: _568  and  _569
REMARK  234  A    between atoms: _568  and  _571
REMARK  235  A    between atoms: _571  and  _572
REMARK  236  A    between atoms: _577  and  _579
REMARK  237  A    between atoms: _579  and  _580
REMARK  238  A    between atoms: _579  and  _582
REMARK  239  A    between atoms: _582  and  _583
REMARK  240  A    between atoms: _585  and  _587
REMARK  241  A    between atoms: _587  and  _588
REMARK  242  A    between atoms: _587  and  _590
REMARK  243  A    between atoms: _590  and  _591
REMARK  244  A    between atoms: _591  and  _592
REMARK  245  A    between atoms: _597  and  _599
REMARK  246  A    between atoms: _599  and  _600
REMARK  247  A    between atoms: _599  and  _602
REMARK  248  A    between atoms: _602  and  _603
REMARK  249  A    between atoms: _608  and  _609
REMARK  250  A    between atoms: _611  and  _613
REMARK  251  A    between atoms: _613  and  _614
REMARK  252  A    between atoms: _613  and  _616
REMARK  253  A    between atoms: _616  and  _617
REMARK  254  A    between atoms: _617  and  _618
REMARK  255  A    between atoms: _618  and  _619
REMARK  256  A    between atoms: _628  and  _630
REMARK  257  A    between atoms: _630  and  _631
REMARK  258  A    between atoms: _630  and  _633
REMARK  259  A    between atoms: _633  and  _634
REMARK  260  A    between atoms: _637  and  _639
REMARK  261  A    between atoms: _639  and  _640
REMARK  262  A    between atoms: _639  and  _642
REMARK  263  A    between atoms: _642  and  _643
REMARK  264  A    between atoms: _645  and  _647
REMARK  265  A    between atoms: _647  and  _648
REMARK  266  A    between atoms: _647  and  _650
REMARK  267  A    between atoms: _650  and  _651
REMARK  268  A    between atoms: _656  and  _658
REMARK  269  A    between atoms: _658  and  _659
REMARK  270  A    between atoms: _658  and  _661
REMARK  271  A    between atoms: _661  and  _662
REMARK  272  A    between atoms: _662  and  _663
REMARK  273  A    between atoms: _663  and  _664
REMARK  274  A    between atoms: _664  and  _665
REMARK  275  A    between atoms: _669  and  _671
REMARK  276  A    between atoms: _671  and  _672
REMARK  277  A    between atoms: _671  and  _674
REMARK  278  A    between atoms: _674  and  _675
REMARK  279  A    between atoms: _678  and  _680
REMARK  280  A    between atoms: _680  and  _681
REMARK  281  A    between atoms: _680  and  _683
REMARK  282  A    between atoms: _683  and  _684
REMARK  283  A    between atoms: _687  and  _689
REMARK  284  A    between atoms: _689  and  _690
REMARK  285  A    between atoms: _689  and  _692
REMARK  286  A    between atoms: _695  and  _697
REMARK  287  A    between atoms: _697  and  _698
REMARK  288  A    between atoms: _697  and  _700
REMARK  289  A    between atoms: _700  and  _701
REMARK  290  A    between atoms: _704  and  _706
REMARK  291  A    between atoms: _706  and  _707
REMARK  292  A    between atoms: _706  and  _709
REMARK  293  A    between atoms: _709  and  _710
REMARK                            x       y       z     vdW  Elec       q    Type
REMARK                         _______ _______ _______ _____ _____    ______ ____
ROOT
ATOM      1  O   HOH     1      60.504  -7.943  -5.237  0.00  0.00    +0.000 OA
ENDROOT
TORSDOF 0
REMARK  Name = ../refined-set-2016/2o4r/2o4r_pocket.pdb
REMARK  293 active torsions:
REMARK  status: ('A' for Active; 'I' for Inactive)
REMARK    1  A    between atoms: _1  and  _3
REMARK    2  A    between atoms: _3  and  _4
REMARK    3  A    between atoms: _3  and  _6
REMARK    4  A    between atoms: _6  and  _7
REMARK    5  A    between atoms: _10  and  _12
REMARK    6  A    between atoms: _12  and  _13
REMARK    7  A    between atoms: _12  and  _15
REMARK    8  A    between atoms: _15  and  _16
REMARK    9  A    between atoms: _21  and  _22
REMARK   10  A    between atoms: _24  and  _26
REMARK   11  A    between atoms: _26  and  _27
REMARK   12  A    between atoms: _26  and  _29
REMARK   13  A    between atoms: _29  and  _30
REMARK   14  A    between atoms: _34  and  _35
REMARK   15  A    between atoms: _40  and  _42
REMARK   16  A    between atoms: _42  and  _43
REMARK   17  A    between atoms: _42  and  _45
REMARK   18  A    between atoms: _45  and  _46
REMARK   19  A    between atoms: _51  and  _52
REMARK   20  A    between atoms: _54  and  _56
REMARK   21  A    between atoms: _56  and  _57
REMARK   22  A    between atoms: _56  and  _59
REMARK   23  A    between atoms: _59  and  _60
REMARK   24  A    between atoms: _66  and  _68
REMARK   25  A    between atoms: _68  and  _69
REMARK   26  A    between atoms: _68  and  _71
REMARK   27  A    between atoms: _71  and  _72
REMARK   28  A    between atoms: _78  and  _80
REMARK   29  A    between atoms: _80  and  _81
REMARK   30  A    between atoms: _80  and  _83
REMARK   31  A    between atoms: _83  and  _84
REMARK   32  A    between atoms: _84  and  _85
REMARK   33  A    between atoms: _85  and  _86
REMARK   34  A    between atoms: _95  and  _97
REMARK   35  A    between atoms: _97  and  _98
REMARK   36  A    between atoms: _97  and  _100
REMARK   37  A    between atoms: _100  and  _101
REMARK   38  A    between atoms: _101  and  _102
REMARK   39  A    between atoms: _104  and  _106
REMARK   40  A    between atoms: _106  and  _107
REMARK   41  A    between atoms: _106  and  _109
REMARK   42  A    between atoms: _109  and  _110
REMARK   43  A    between atoms: _114  and  _115
REMARK   44  A    between atoms: _120  and  _122
REMARK   45  A    between atoms: _122  and  _123
REMARK   46  A    between atoms: _122  and  _125
REMARK   47  A    between atoms: _125  and  _126
REMARK   48  A    between atoms: _131  and  _133
REMARK   49  A    between atoms: _133  and  _134
REMARK   50  A    between atoms: _133  and  _136
REMARK   51  A    between atoms: _136  and  _137
REMARK   52  A    between atoms: _140  and  _142
REMARK   53  A    between atoms: _142  and  _143
REMARK   54  A    between atoms: _146  and  _148
REMARK   55  A    between atoms: _148  and  _149
REMARK   56  A    between atoms: _148  and  _151
REMARK   57  A    between atoms: _151  and  _152
REMARK   58  A    between atoms: _155  and  _157
REMARK   59  A    between atoms: _157  and  _158
REMARK   60  A    between atoms: _157  and  _160
REMARK   61  A    between atoms: _160  and  _161
REMARK   62  A    between atoms: _164  and  _166
REMARK   63  A    between atoms: _166  and  _167
REMARK   64  A    between atoms: _166  and  _169
REMARK   65  A    between atoms: _172  and  _174
REMARK   66  A    between atoms: _174  and  _175
REMARK   67  A    between atoms: _174  and  _177
REMARK   68  A    between atoms: _177  and  _178
REMARK   69  A    between atoms: _180  and  _182
REMARK   70  A    between atoms: _182  and  _183
REMARK   71  A    between atoms: _182  and  _185
REMARK   72  A    between atoms: _185  and  _186
REMARK   73  A    between atoms: _191  and  _192
REMARK   74  A    between atoms: _194  and  _196
REMARK   75  A    between atoms: _196  and  _197
REMARK   76  A    between atoms: _196  and  _199
REMARK   77  A    between atoms: _199  and  _200
REMARK   78  A    between atoms: _202  and  _204
REMARK   79  A    between atoms: _204  and  _205
REMARK   80  A    between atoms: _204  and  _207
REMARK   81  A    between atoms: _207  and  _208
REMARK   82  A    between atoms: _211  and  _213
REMARK   83  A    between atoms: _213  and  _214
REMARK   84  A    between atoms: _213  and  _216
REMARK   85  A    between atoms: _216  and  _217
REMARK   86  A    between atoms: _217  and  _218
REMARK   87  A    between atoms: _218  and  _219
REMARK   88  A    between atoms: _219  and  _220
REMARK   89  A    between atoms: _224  and  _226
REMARK   90  A    between atoms: _226  and  _227
REMARK   91  A    between atoms: _226  and  _229
REMARK   92  A    between atoms: _232  and  _234
REMARK   93  A    between atoms: _234  and  _235
REMARK   94  A    between atoms: _238  and  _240
REMARK   95  A    between atoms: _240  and  _241
REMARK   96  A    between atoms: _240  and  _243
REMARK   97  A    between atoms: _243  and  _244
REMARK   98  A    between atoms: _247  and  _249
REMARK   99  A    between atoms: _249  and  _250
REMARK  100  A    between atoms: _249  and  _252
REMARK  101  A    between atoms: _252  and  _253
REMARK  102  A    between atoms: _253  and  _254
REMARK  103  A    between atoms: _257  and  _259
REMARK  104  A    between atoms: _259  and  _260
REMARK  105  A    between atoms: _259  and  _262
REMARK  106  A    between atoms: _265  and  _267
REMARK  107  A    between atoms: _267  and  _268
REMARK  108  A    between atoms: _267  and  _270
REMARK  109  A    between atoms: _270  and  _271
REMARK  110  A    between atoms: _274  and  _276
REMARK  111  A    between atoms: _276  and  _277
REMARK  112  A    between atoms: _276  and  _279
REMARK  113  A    between atoms: _279  and  _280
REMARK  114  A    between atoms: _280  and  _281
REMARK  115  A    between atoms: _283  and  _285
REMARK  116  A    between atoms: _285  and  _286
REMARK  117  A    between atoms: _285  and  _288
REMARK  118  A    between atoms: _288  and  _289
REMARK  119  A    between atoms: _292  and  _294
REMARK  120  A    between atoms: _294  and  _295
REMARK  121  A    between atoms: _294  and  _297
REMARK  122  A    between atoms: _297  and  _298
REMARK  123  A    between atoms: _298  and  _299
REMARK  124  A    between atoms: _299  and  _300
REMARK  125  A    between atoms: _309  and  _311
REMARK  126  A    between atoms: _311  and  _312
REMARK  127  A    between atoms: _311  and  _314
REMARK  128  A    between atoms: _314  and  _315
REMARK  129  A    between atoms: _317  and  _319
REMARK  130  A    between atoms: _319  and  _320
REMARK  131  A    between atoms: _319  and  _322
REMARK  132  A    between atoms: _322  and  _323
REMARK  133  A    between atoms: _328  and  _330
REMARK  134  A    between atoms: _330  and  _331
REMARK  135  A    between atoms: _330  and  _333
REMARK  136  A    between atoms: _333  and  _334
REMARK  137  A    between atoms: _334  and  _335
REMARK  138  A    between atoms: _340  and  _342
REMARK  139  A    between atoms: _342  and  _343
REMARK  140  A    between atoms: _342  and  _345
REMARK  141  A    between atoms: _345  and  _346
REMARK  142  A    between atoms: _348  and  _350
REMARK  143  A    between atoms: _350  and  _351
REMARK  144  A    between atoms: _350  and  _353
REMARK  145  A    between atoms: _353  and  _354
REMARK  146  A    between atoms: _360  and  _362
REMARK  147  A    between atoms: _362  and  _363
REMARK  148  A    between atoms: _362  and  _365
REMARK  149  A    between atoms: _365  and  _366
REMARK  150  A    between atoms: _368  and  _370
REMARK  151  A    between atoms: _370  and  _371
REMARK  152  A    between atoms: _370  and  _373
REMARK  153  A    between atoms: _373  and  _374
REMARK  154  A    between atoms: _384  and  _386
REMARK  155  A    between atoms: _386  and  _387
REMARK  156  A    between atoms: _386  and  _389
REMARK  157  A    between atoms: _389  and  _390
REMARK  158  A    between atoms: _393  and  _395
REMARK  159  A    between atoms: _395  and  _396
REMARK  160  A    between atoms: _395  and  _398
REMARK  161  A    between atoms: _400  and  _402
REMARK  162  A    between atoms: _402  and  _403
REMARK  163  A    between atoms: _402  and  _405
REMARK  164  A    between atoms: _405  and  _406
REMARK  165  A    between atoms: _411  and  _412
REMARK  166  A    between atoms: _414  and  _416
REMARK  167  A    between atoms: _416  and  _417
REMARK  168  A    between atoms: _416  and  _419
REMARK  169  A    between atoms: _419  and  _420
REMARK  170  A    between atoms: _420  and  _421
REMARK  171  A    between atoms: _421  and  _422
REMARK  172  A    between atoms: _422  and  _423
REMARK  173  A    between atoms: _427  and  _429
REMARK  174  A    between atoms: _429  and  _430
REMARK  175  A    between atoms: _429  and  _432
REMARK  176  A    between atoms: _432  and  _433
REMARK  177  A    between atoms: _438  and  _439
REMARK  178  A    between atoms: _441  and  _443
REMARK  179  A    between atoms: _443  and  _444
REMARK  180  A    between atoms: _443  and  _446
REMARK  181  A    between atoms: _446  and  _447
REMARK  182  A    between atoms: _450  and  _452
REMARK  183  A    between atoms: _452  and  _453
REMARK  184  A    between atoms: _452  and  _455
REMARK  185  A    between atoms: _458  and  _460
REMARK  186  A    between atoms: _460  and  _461
REMARK  187  A    between atoms: _460  and  _463
REMARK  188  A    between atoms: _463  and  _464
REMARK  189  A    between atoms: _467  and  _469
REMARK  190  A    between atoms: _469  and  _470
REMARK  191  A    between atoms: _469  and  _472
REMARK  192  A    between atoms: _475  and  _477
REMARK  193  A    between atoms: _477  and  _478
REMARK  194  A    between atoms: _477  and  _480
REMARK  195  A    between atoms: _480  and  _481
REMARK  196  A    between atoms: _483  and  _485
REMARK  197  A    between atoms: _485  and  _486
REMARK  198  A    between atoms: _485  and  _488
REMARK  199  A    between atoms: _488  and  _489
REMARK  200  A    between atoms: _489  and  _490
REMARK  201  A    between atoms: _490  and  _491
REMARK  202  A    between atoms: _491  and  _492
REMARK  203  A    between atoms: _496  and  _498
REMARK  204  A    between atoms: _498  and  _499
REMARK  205  A    between atoms: _502  and  _504
REMARK  206  A    between atoms: _504  and  _505
REMARK  207  A    between atoms: _507  and  _509
REMARK  208  A    between atoms: _509  and  _510
REMARK  209  A    between atoms: _509  and  _512
REMARK  210  A    between atoms: _512  and  _513
REMARK  211  A    between atoms: _518  and  _520
REMARK  212  A    between atoms: _520  and  _521
REMARK  213  A    between atoms: _520  and  _523
REMARK  214  A    between atoms: _523  and  _524
REMARK  215  A    between atoms: _527  and  _529
REMARK  216  A    between atoms: _529  and  _530
REMARK  217  A    between atoms: _529  and  _532
REMARK  218  A    between atoms: _532  and  _533
REMARK  219  A    between atoms: _536  and  _538
REMARK  220  A    between atoms: _538  and  _539
REMARK  221  A    between atoms: _538  and  _541
REMARK  222  A    between atoms: _541  and  _542
REMARK  223  A    between atoms: _545  and  _547
REMARK  224  A    between atoms: _547  and  _548
REMARK  225  A    between atoms: _547  and  _550
REMARK  226  A    between atoms: _550  and  _551
REMARK  227  A    between atoms: _554  and  _556
REMARK  228  A    between atoms: _556  and  _557
REMARK  229  A    between atoms: _556  and  _559
REMARK  230  A    between atoms: _559  and  _560
REMARK  231  A    between atoms: _560  and  _561
REMARK  232  A    between atoms: _566  and  _568
REMARK  233  A    between atoms: _568  and  _569
REMARK  234  A    between atoms: _568  and  _571
REMARK  235  A    between atoms: _571  and  _572
REMARK  236  A    between atoms: _577  and  _579
REMARK  237  A    between atoms: _579  and  _580
REMARK  238  A    between atoms: _579  and  _582
REMARK  239  A    between atoms: _582  and  _583
REMARK  240  A    between atoms: _585  and  _587
REMARK  241  A    between atoms: _587  and  _588
REMARK  242  A    between atoms: _587  and  _590
REMARK  243  A    between atoms: _590  and  _591
REMARK  244  A    between atoms: _591  and  _592
REMARK  245  A    between atoms: _597  and  _599
REMARK  246  A    between atoms: _599  and  _600
REMARK  247  A    between atoms: _599  and  _602
REMARK  248  A    between atoms: _602  and  _603
REMARK  249  A    between atoms: _608  and  _609
REMARK  250  A    between atoms: _611  and  _613
REMARK  251  A    between atoms: _613  and  _614
REMARK  252  A    between atoms: _613  and  _616
REMARK  253  A    between atoms: _616  and  _617
REMARK  254  A    between atoms: _617  and  _618
REMARK  255  A    between atoms: _618  and  _619
REMARK  256  A    between atoms: _628  and  _630
REMARK  257  A    between atoms: _630  and  _631
REMARK  258  A    between atoms: _630  and  _633
REMARK  259  A    between atoms: _633  and  _634
REMARK  260  A    between atoms: _637  and  _639
REMARK  261  A    between atoms: _639  and  _640
REMARK  262  A    between atoms: _639  and  _642
REMARK  263  A    between atoms: _642  and  _643
REMARK  264  A    between atoms: _645  and  _647
REMARK  265  A    between atoms: _647  and  _648
REMARK  266  A    between atoms: _647  and  _650
REMARK  267  A    between atoms: _650  and  _651
REMARK  268  A    between atoms: _656  and  _658
REMARK  269  A    between atoms: _658  and  _659
REMARK  270  A    between atoms: _658  and  _661
REMARK  271  A    between atoms: _661  and  _662
REMARK  272  A    between atoms: _662  and  _663
REMARK  273  A    between atoms: _663  and  _664
REMARK  274  A    between atoms: _664  and  _665
REMARK  275  A    between atoms: _669  and  _671
REMARK  276  A    between atoms: _671  and  _672
REMARK  277  A    between atoms: _671  and  _674
REMARK  278  A    between atoms: _674  and  _675
REMARK  279  A    between atoms: _678  and  _680
REMARK  280  A    between atoms: _680  and  _681
REMARK  281  A    between atoms: _680  and  _683
REMARK  282  A    between atoms: _683  and  _684
REMARK  283  A    between atoms: _687  and  _689
REMARK  284  A    between atoms: _689  and  _690
REMARK  285  A    between atoms: _689  and  _692
REMARK  286  A    between atoms: _695  and  _697
REMARK  287  A    between atoms: _697  and  _698
REMARK  288  A    between atoms: _697  and  _700
REMARK  289  A    between atoms: _700  and  _701
REMARK  290  A    between atoms: _704  and  _706
REMARK  291  A    between atoms: _706  and  _707
REMARK  292  A    between atoms: _706  and  _709
REMARK  293  A    between atoms: _709  and  _710
REMARK                            x       y       z     vdW  Elec       q    Type
REMARK                         _______ _______ _______ _____ _____    ______ ____
ROOT
ATOM      1  O   HOH     1      66.173  -4.238 -14.923  0.00  0.00    +0.000 OA
ENDROOT
TORSDOF 0
REMARK  Name = ../refined-set-2016/2o4r/2o4r_pocket.pdb
REMARK  293 active torsions:
REMARK  status: ('A' for Active; 'I' for Inactive)
REMARK    1  A    between atoms: _1  and  _3
REMARK    2  A    between atoms: _3  and  _4
REMARK    3  A    between atoms: _3  and  _6
REMARK    4  A    between atoms: _6  and  _7
REMARK    5  A    between atoms: _10  and  _12
REMARK    6  A    between atoms: _12  and  _13
REMARK    7  A    between atoms: _12  and  _15
REMARK    8  A    between atoms: _15  and  _16
REMARK    9  A    between atoms: _21  and  _22
REMARK   10  A    between atoms: _24  and  _26
REMARK   11  A    between atoms: _26  and  _27
REMARK   12  A    between atoms: _26  and  _29
REMARK   13  A    between atoms: _29  and  _30
REMARK   14  A    between atoms: _34  and  _35
REMARK   15  A    between atoms: _40  and  _42
REMARK   16  A    between atoms: _42  and  _43
REMARK   17  A    between atoms: _42  and  _45
REMARK   18  A    between atoms: _45  and  _46
REMARK   19  A    between atoms: _51  and  _52
REMARK   20  A    between atoms: _54  and  _56
REMARK   21  A    between atoms: _56  and  _57
REMARK   22  A    between atoms: _56  and  _59
REMARK   23  A    between atoms: _59  and  _60
REMARK   24  A    between atoms: _66  and  _68
REMARK   25  A    between atoms: _68  and  _69
REMARK   26  A    between atoms: _68  and  _71
REMARK   27  A    between atoms: _71  and  _72
REMARK   28  A    between atoms: _78  and  _80
REMARK   29  A    between atoms: _80  and  _81
REMARK   30  A    between atoms: _80  and  _83
REMARK   31  A    between atoms: _83  and  _84
REMARK   32  A    between atoms: _84  and  _85
REMARK   33  A    between atoms: _85  and  _86
REMARK   34  A    between atoms: _95  and  _97
REMARK   35  A    between atoms: _97  and  _98
REMARK   36  A    between atoms: _97  and  _100
REMARK   37  A    between atoms: _100  and  _101
REMARK   38  A    between atoms: _101  and  _102
REMARK   39  A    between atoms: _104  and  _106
REMARK   40  A    between atoms: _106  and  _107
REMARK   41  A    between atoms: _106  and  _109
REMARK   42  A    between atoms: _109  and  _110
REMARK   43  A    between atoms: _114  and  _115
REMARK   44  A    between atoms: _120  and  _122
REMARK   45  A    between atoms: _122  and  _123
REMARK   46  A    between atoms: _122  and  _125
REMARK   47  A    between atoms: _125  and  _126
REMARK   48  A    between atoms: _131  and  _133
REMARK   49  A    between atoms: _133  and  _134
REMARK   50  A    between atoms: _133  and  _136
REMARK   51  A    between atoms: _136  and  _137
REMARK   52  A    between atoms: _140  and  _142
REMARK   53  A    between atoms: _142  and  _143
REMARK   54  A    between atoms: _146  and  _148
REMARK   55  A    between atoms: _148  and  _149
REMARK   56  A    between atoms: _148  and  _151
REMARK   57  A    between atoms: _151  and  _152
REMARK   58  A    between atoms: _155  and  _157
REMARK   59  A    between atoms: _157  and  _158
REMARK   60  A    between atoms: _157  and  _160
REMARK   61  A    between atoms: _160  and  _161
REMARK   62  A    between atoms: _164  and  _166
REMARK   63  A    between atoms: _166  and  _167
REMARK   64  A    between atoms: _166  and  _169
REMARK   65  A    between atoms: _172  and  _174
REMARK   66  A    between atoms: _174  and  _175
REMARK   67  A    between atoms: _174  and  _177
REMARK   68  A    between atoms: _177  and  _178
REMARK   69  A    between atoms: _180  and  _182
REMARK   70  A    between atoms: _182  and  _183
REMARK   71  A    between atoms: _182  and  _185
REMARK   72  A    between atoms: _185  and  _186
REMARK   73  A    between atoms: _191  and  _192
REMARK   74  A    between atoms: _194  and  _196
REMARK   75  A    between atoms: _196  and  _197
REMARK   76  A    between atoms: _196  and  _199
REMARK   77  A    between atoms: _199  and  _200
REMARK   78  A    between atoms: _202  and  _204
REMARK   79  A    between atoms: _204  and  _205
REMARK   80  A    between atoms: _204  and  _207
REMARK   81  A    between atoms: _207  and  _208
REMARK   82  A    between atoms: _211  and  _213
REMARK   83  A    between atoms: _213  and  _214
REMARK   84  A    between atoms: _213  and  _216
REMARK   85  A    between atoms: _216  and  _217
REMARK   86  A    between atoms: _217  and  _218
REMARK   87  A    between atoms: _218  and  _219
REMARK   88  A    between atoms: _219  and  _220
REMARK   89  A    between atoms: _224  and  _226
REMARK   90  A    between atoms: _226  and  _227
REMARK   91  A    between atoms: _226  and  _229
REMARK   92  A    between atoms: _232  and  _234
REMARK   93  A    between atoms: _234  and  _235
REMARK   94  A    between atoms: _238  and  _240
REMARK   95  A    between atoms: _240  and  _241
REMARK   96  A    between atoms: _240  and  _243
REMARK   97  A    between atoms: _243  and  _244
REMARK   98  A    between atoms: _247  and  _249
REMARK   99  A    between atoms: _249  and  _250
REMARK  100  A    between atoms: _249  and  _252
REMARK  101  A    between atoms: _252  and  _253
REMARK  102  A    between atoms: _253  and  _254
REMARK  103  A    between atoms: _257  and  _259
REMARK  104  A    between atoms: _259  and  _260
REMARK  105  A    between atoms: _259  and  _262
REMARK  106  A    between atoms: _265  and  _267
REMARK  107  A    between atoms: _267  and  _268
REMARK  108  A    between atoms: _267  and  _270
REMARK  109  A    between atoms: _270  and  _271
REMARK  110  A    between atoms: _274  and  _276
REMARK  111  A    between atoms: _276  and  _277
REMARK  112  A    between atoms: _276  and  _279
REMARK  113  A    between atoms: _279  and  _280
REMARK  114  A    between atoms: _280  and  _281
REMARK  115  A    between atoms: _283  and  _285
REMARK  116  A    between atoms: _285  and  _286
REMARK  117  A    between atoms: _285  and  _288
REMARK  118  A    between atoms: _288  and  _289
REMARK  119  A    between atoms: _292  and  _294
REMARK  120  A    between atoms: _294  and  _295
REMARK  121  A    between atoms: _294  and  _297
REMARK  122  A    between atoms: _297  and  _298
REMARK  123  A    between atoms: _298  and  _299
REMARK  124  A    between atoms: _299  and  _300
REMARK  125  A    between atoms: _309  and  _311
REMARK  126  A    between atoms: _311  and  _312
REMARK  127  A    between atoms: _311  and  _314
REMARK  128  A    between atoms: _314  and  _315
REMARK  129  A    between atoms: _317  and  _319
REMARK  130  A    between atoms: _319  and  _320
REMARK  131  A    between atoms: _319  and  _322
REMARK  132  A    between atoms: _322  and  _323
REMARK  133  A    between atoms: _328  and  _330
REMARK  134  A    between atoms: _330  and  _331
REMARK  135  A    between atoms: _330  and  _333
REMARK  136  A    between atoms: _333  and  _334
REMARK  137  A    between atoms: _334  and  _335
REMARK  138  A    between atoms: _340  and  _342
REMARK  139  A    between atoms: _342  and  _343
REMARK  140  A    between atoms: _342  and  _345
REMARK  141  A    between atoms: _345  and  _346
REMARK  142  A    between atoms: _348  and  _350
REMARK  143  A    between atoms: _350  and  _351
REMARK  144  A    between atoms: _350  and  _353
REMARK  145  A    between atoms: _353  and  _354
REMARK  146  A    between atoms: _360  and  _362
REMARK  147  A    between atoms: _362  and  _363
REMARK  148  A    between atoms: _362  and  _365
REMARK  149  A    between atoms: _365  and  _366
REMARK  150  A    between atoms: _368  and  _370
REMARK  151  A    between atoms: _370  and  _371
REMARK  152  A    between atoms: _370  and  _373
REMARK  153  A    between atoms: _373  and  _374
REMARK  154  A    between atoms: _384  and  _386
REMARK  155  A    between atoms: _386  and  _387
REMARK  156  A    between atoms: _386  and  _389
REMARK  157  A    between atoms: _389  and  _390
REMARK  158  A    between atoms: _393  and  _395
REMARK  159  A    between atoms: _395  and  _396
REMARK  160  A    between atoms: _395  and  _398
REMARK  161  A    between atoms: _400  and  _402
REMARK  162  A    between atoms: _402  and  _403
REMARK  163  A    between atoms: _402  and  _405
REMARK  164  A    between atoms: _405  and  _406
REMARK  165  A    between atoms: _411  and  _412
REMARK  166  A    between atoms: _414  and  _416
REMARK  167  A    between atoms: _416  and  _417
REMARK  168  A    between atoms: _416  and  _419
REMARK  169  A    between atoms: _419  and  _420
REMARK  170  A    between atoms: _420  and  _421
REMARK  171  A    between atoms: _421  and  _422
REMARK  172  A    between atoms: _422  and  _423
REMARK  173  A    between atoms: _427  and  _429
REMARK  174  A    between atoms: _429  and  _430
REMARK  175  A    between atoms: _429  and  _432
REMARK  176  A    between atoms: _432  and  _433
REMARK  177  A    between atoms: _438  and  _439
REMARK  178  A    between atoms: _441  and  _443
REMARK  179  A    between atoms: _443  and  _444
REMARK  180  A    between atoms: _443  and  _446
REMARK  181  A    between atoms: _446  and  _447
REMARK  182  A    between atoms: _450  and  _452
REMARK  183  A    between atoms: _452  and  _453
REMARK  184  A    between atoms: _452  and  _455
REMARK  185  A    between atoms: _458  and  _460
REMARK  186  A    between atoms: _460  and  _461
REMARK  187  A    between atoms: _460  and  _463
REMARK  188  A    between atoms: _463  and  _464
REMARK  189  A    between atoms: _467  and  _469
REMARK  190  A    between atoms: _469  and  _470
REMARK  191  A    between atoms: _469  and  _472
REMARK  192  A    between atoms: _475  and  _477
REMARK  193  A    between atoms: _477  and  _478
REMARK  194  A    between atoms: _477  and  _480
REMARK  195  A    between atoms: _480  and  _481
REMARK  196  A    between atoms: _483  and  _485
REMARK  197  A    between atoms: _485  and  _486
REMARK  198  A    between atoms: _485  and  _488
REMARK  199  A    between atoms: _488  and  _489
REMARK  200  A    between atoms: _489  and  _490
REMARK  201  A    between atoms: _490  and  _491
REMARK  202  A    between atoms: _491  and  _492
REMARK  203  A    between atoms: _496  and  _498
REMARK  204  A    between atoms: _498  and  _499
REMARK  205  A    between atoms: _502  and  _504
REMARK  206  A    between atoms: _504  and  _505
REMARK  207  A    between atoms: _507  and  _509
REMARK  208  A    between atoms: _509  and  _510
REMARK  209  A    between atoms: _509  and  _512
REMARK  210  A    between atoms: _512  and  _513
REMARK  211  A    between atoms: _518  and  _520
REMARK  212  A    between atoms: _520  and  _521
REMARK  213  A    between atoms: _520  and  _523
REMARK  214  A    between atoms: _523  and  _524
REMARK  215  A    between atoms: _527  and  _529
REMARK  216  A    between atoms: _529  and  _530
REMARK  217  A    between atoms: _529  and  _532
REMARK  218  A    between atoms: _532  and  _533
REMARK  219  A    between atoms: _536  and  _538
REMARK  220  A    between atoms: _538  and  _539
REMARK  221  A    between atoms: _538  and  _541
REMARK  222  A    between atoms: _541  and  _542
REMARK  223  A    between atoms: _545  and  _547
REMARK  224  A    between atoms: _547  and  _548
REMARK  225  A    between atoms: _547  and  _550
REMARK  226  A    between atoms: _550  and  _551
REMARK  227  A    between atoms: _554  and  _556
REMARK  228  A    between atoms: _556  and  _557
REMARK  229  A    between atoms: _556  and  _559
REMARK  230  A    between atoms: _559  and  _560
REMARK  231  A    between atoms: _560  and  _561
REMARK  232  A    between atoms: _566  and  _568
REMARK  233  A    between atoms: _568  and  _569
REMARK  234  A    between atoms: _568  and  _571
REMARK  235  A    between atoms: _571  and  _572
REMARK  236  A    between atoms: _577  and  _579
REMARK  237  A    between atoms: _579  and  _580
REMARK  238  A    between atoms: _579  and  _582
REMARK  239  A    between atoms: _582  and  _583
REMARK  240  A    between atoms: _585  and  _587
REMARK  241  A    between atoms: _587  and  _588
REMARK  242  A    between atoms: _587  and  _590
REMARK  243  A    between atoms: _590  and  _591
REMARK  244  A    between atoms: _591  and  _592
REMARK  245  A    between atoms: _597  and  _599
REMARK  246  A    between atoms: _599  and  _600
REMARK  247  A    between atoms: _599  and  _602
REMARK  248  A    between atoms: _602  and  _603
REMARK  249  A    between atoms: _608  and  _609
REMARK  250  A    between atoms: _611  and  _613
REMARK  251  A    between atoms: _613  and  _614
REMARK  252  A    between atoms: _613  and  _616
REMARK  253  A    between atoms: _616  and  _617
REMARK  254  A    between atoms: _617  and  _618
REMARK  255  A    between atoms: _618  and  _619
REMARK  256  A    between atoms: _628  and  _630
REMARK  257  A    between atoms: _630  and  _631
REMARK  258  A    between atoms: _630  and  _633
REMARK  259  A    between atoms: _633  and  _634
REMARK  260  A    between atoms: _637  and  _639
REMARK  261  A    between atoms: _639  and  _640
REMARK  262  A    between atoms: _639  and  _642
REMARK  263  A    between atoms: _642  and  _643
REMARK  264  A    between atoms: _645  and  _647
REMARK  265  A    between atoms: _647  and  _648
REMARK  266  A    between atoms: _647  and  _650
REMARK  267  A    between atoms: _650  and  _651
REMARK  268  A    between atoms: _656  and  _658
REMARK  269  A    between atoms: _658  and  _659
REMARK  270  A    between atoms: _658  and  _661
REMARK  271  A    between atoms: _661  and  _662
REMARK  272  A    between atoms: _662  and  _663
REMARK  273  A    between atoms: _663  and  _664
REMARK  274  A    between atoms: _664  and  _665
REMARK  275  A    between atoms: _669  and  _671
REMARK  276  A    between atoms: _671  and  _672
REMARK  277  A    between atoms: _671  and  _674
REMARK  278  A    between atoms: _674  and  _675
REMARK  279  A    between atoms: _678  and  _680
REMARK  280  A    between atoms: _680  and  _681
REMARK  281  A    between atoms: _680  and  _683
REMARK  282  A    between atoms: _683  and  _684
REMARK  283  A    between atoms: _687  and  _689
REMARK  284  A    between atoms: _689  and  _690
REMARK  285  A    between atoms: _689  and  _692
REMARK  286  A    between atoms: _695  and  _697
REMARK  287  A    between atoms: _697  and  _698
REMARK  288  A    between atoms: _697  and  _700
REMARK  289  A    between atoms: _700  and  _701
REMARK  290  A    between atoms: _704  and  _706
REMARK  291  A    between atoms: _706  and  _707
REMARK  292  A    between atoms: _706  and  _709
REMARK  293  A    between atoms: _709  and  _710
REMARK                            x       y       z     vdW  Elec       q    Type
REMARK                         _______ _______ _______ _____ _____    ______ ____
ROOT
ATOM      1  O   HOH     1      56.198  15.143   0.637  0.00  0.00    +0.000 OA
ENDROOT
TORSDOF 0
REMARK  Name = ../refined-set-2016/2o4r/2o4r_pocket.pdb
REMARK  293 active torsions:
REMARK  status: ('A' for Active; 'I' for Inactive)
REMARK    1  A    between atoms: _1  and  _3
REMARK    2  A    between atoms: _3  and  _4
REMARK    3  A    between atoms: _3  and  _6
REMARK    4  A    between atoms: _6  and  _7
REMARK    5  A    between atoms: _10  and  _12
REMARK    6  A    between atoms: _12  and  _13
REMARK    7  A    between atoms: _12  and  _15
REMARK    8  A    between atoms: _15  and  _16
REMARK    9  A    between atoms: _21  and  _22
REMARK   10  A    between atoms: _24  and  _26
REMARK   11  A    between atoms: _26  and  _27
REMARK   12  A    between atoms: _26  and  _29
REMARK   13  A    between atoms: _29  and  _30
REMARK   14  A    between atoms: _34  and  _35
REMARK   15  A    between atoms: _40  and  _42
REMARK   16  A    between atoms: _42  and  _43
REMARK   17  A    between atoms: _42  and  _45
REMARK   18  A    between atoms: _45  and  _46
REMARK   19  A    between atoms: _51  and  _52
REMARK   20  A    between atoms: _54  and  _56
REMARK   21  A    between atoms: _56  and  _57
REMARK   22  A    between atoms: _56  and  _59
REMARK   23  A    between atoms: _59  and  _60
REMARK   24  A    between atoms: _66  and  _68
REMARK   25  A    between atoms: _68  and  _69
REMARK   26  A    between atoms: _68  and  _71
REMARK   27  A    between atoms: _71  and  _72
REMARK   28  A    between atoms: _78  and  _80
REMARK   29  A    between atoms: _80  and  _81
REMARK   30  A    between atoms: _80  and  _83
REMARK   31  A    between atoms: _83  and  _84
REMARK   32  A    between atoms: _84  and  _85
REMARK   33  A    between atoms: _85  and  _86
REMARK   34  A    between atoms: _95  and  _97
REMARK   35  A    between atoms: _97  and  _98
REMARK   36  A    between atoms: _97  and  _100
REMARK   37  A    between atoms: _100  and  _101
REMARK   38  A    between atoms: _101  and  _102
REMARK   39  A    between atoms: _104  and  _106
REMARK   40  A    between atoms: _106  and  _107
REMARK   41  A    between atoms: _106  and  _109
REMARK   42  A    between atoms: _109  and  _110
REMARK   43  A    between atoms: _114  and  _115
REMARK   44  A    between atoms: _120  and  _122
REMARK   45  A    between atoms: _122  and  _123
REMARK   46  A    between atoms: _122  and  _125
REMARK   47  A    between atoms: _125  and  _126
REMARK   48  A    between atoms: _131  and  _133
REMARK   49  A    between atoms: _133  and  _134
REMARK   50  A    between atoms: _133  and  _136
REMARK   51  A    between atoms: _136  and  _137
REMARK   52  A    between atoms: _140  and  _142
REMARK   53  A    between atoms: _142  and  _143
REMARK   54  A    between atoms: _146  and  _148
REMARK   55  A    between atoms: _148  and  _149
REMARK   56  A    between atoms: _148  and  _151
REMARK   57  A    between atoms: _151  and  _152
REMARK   58  A    between atoms: _155  and  _157
REMARK   59  A    between atoms: _157  and  _158
REMARK   60  A    between atoms: _157  and  _160
REMARK   61  A    between atoms: _160  and  _161
REMARK   62  A    between atoms: _164  and  _166
REMARK   63  A    between atoms: _166  and  _167
REMARK   64  A    between atoms: _166  and  _169
REMARK   65  A    between atoms: _172  and  _174
REMARK   66  A    between atoms: _174  and  _175
REMARK   67  A    between atoms: _174  and  _177
REMARK   68  A    between atoms: _177  and  _178
REMARK   69  A    between atoms: _180  and  _182
REMARK   70  A    between atoms: _182  and  _183
REMARK   71  A    between atoms: _182  and  _185
REMARK   72  A    between atoms: _185  and  _186
REMARK   73  A    between atoms: _191  and  _192
REMARK   74  A    between atoms: _194  and  _196
REMARK   75  A    between atoms: _196  and  _197
REMARK   76  A    between atoms: _196  and  _199
REMARK   77  A    between atoms: _199  and  _200
REMARK   78  A    between atoms: _202  and  _204
REMARK   79  A    between atoms: _204  and  _205
REMARK   80  A    between atoms: _204  and  _207
REMARK   81  A    between atoms: _207  and  _208
REMARK   82  A    between atoms: _211  and  _213
REMARK   83  A    between atoms: _213  and  _214
REMARK   84  A    between atoms: _213  and  _216
REMARK   85  A    between atoms: _216  and  _217
REMARK   86  A    between atoms: _217  and  _218
REMARK   87  A    between atoms: _218  and  _219
REMARK   88  A    between atoms: _219  and  _220
REMARK   89  A    between atoms: _224  and  _226
REMARK   90  A    between atoms: _226  and  _227
REMARK   91  A    between atoms: _226  and  _229
REMARK   92  A    between atoms: _232  and  _234
REMARK   93  A    between atoms: _234  and  _235
REMARK   94  A    between atoms: _238  and  _240
REMARK   95  A    between atoms: _240  and  _241
REMARK   96  A    between atoms: _240  and  _243
REMARK   97  A    between atoms: _243  and  _244
REMARK   98  A    between atoms: _247  and  _249
REMARK   99  A    between atoms: _249  and  _250
REMARK  100  A    between atoms: _249  and  _252
REMARK  101  A    between atoms: _252  and  _253
REMARK  102  A    between atoms: _253  and  _254
REMARK  103  A    between atoms: _257  and  _259
REMARK  104  A    between atoms: _259  and  _260
REMARK  105  A    between atoms: _259  and  _262
REMARK  106  A    between atoms: _265  and  _267
REMARK  107  A    between atoms: _267  and  _268
REMARK  108  A    between atoms: _267  and  _270
REMARK  109  A    between atoms: _270  and  _271
REMARK  110  A    between atoms: _274  and  _276
REMARK  111  A    between atoms: _276  and  _277
REMARK  112  A    between atoms: _276  and  _279
REMARK  113  A    between atoms: _279  and  _280
REMARK  114  A    between atoms: _280  and  _281
REMARK  115  A    between atoms: _283  and  _285
REMARK  116  A    between atoms: _285  and  _286
REMARK  117  A    between atoms: _285  and  _288
REMARK  118  A    between atoms: _288  and  _289
REMARK  119  A    between atoms: _292  and  _294
REMARK  120  A    between atoms: _294  and  _295
REMARK  121  A    between atoms: _294  and  _297
REMARK  122  A    between atoms: _297  and  _298
REMARK  123  A    between atoms: _298  and  _299
REMARK  124  A    between atoms: _299  and  _300
REMARK  125  A    between atoms: _309  and  _311
REMARK  126  A    between atoms: _311  and  _312
REMARK  127  A    between atoms: _311  and  _314
REMARK  128  A    between atoms: _314  and  _315
REMARK  129  A    between atoms: _317  and  _319
REMARK  130  A    between atoms: _319  and  _320
REMARK  131  A    between atoms: _319  and  _322
REMARK  132  A    between atoms: _322  and  _323
REMARK  133  A    between atoms: _328  and  _330
REMARK  134  A    between atoms: _330  and  _331
REMARK  135  A    between atoms: _330  and  _333
REMARK  136  A    between atoms: _333  and  _334
REMARK  137  A    between atoms: _334  and  _335
REMARK  138  A    between atoms: _340  and  _342
REMARK  139  A    between atoms: _342  and  _343
REMARK  140  A    between atoms: _342  and  _345
REMARK  141  A    between atoms: _345  and  _346
REMARK  142  A    between atoms: _348  and  _350
REMARK  143  A    between atoms: _350  and  _351
REMARK  144  A    between atoms: _350  and  _353
REMARK  145  A    between atoms: _353  and  _354
REMARK  146  A    between atoms: _360  and  _362
REMARK  147  A    between atoms: _362  and  _363
REMARK  148  A    between atoms: _362  and  _365
REMARK  149  A    between atoms: _365  and  _366
REMARK  150  A    between atoms: _368  and  _370
REMARK  151  A    between atoms: _370  and  _371
REMARK  152  A    between atoms: _370  and  _373
REMARK  153  A    between atoms: _373  and  _374
REMARK  154  A    between atoms: _384  and  _386
REMARK  155  A    between atoms: _386  and  _387
REMARK  156  A    between atoms: _386  and  _389
REMARK  157  A    between atoms: _389  and  _390
REMARK  158  A    between atoms: _393  and  _395
REMARK  159  A    between atoms: _395  and  _396
REMARK  160  A    between atoms: _395  and  _398
REMARK  161  A    between atoms: _400  and  _402
REMARK  162  A    between atoms: _402  and  _403
REMARK  163  A    between atoms: _402  and  _405
REMARK  164  A    between atoms: _405  and  _406
REMARK  165  A    between atoms: _411  and  _412
REMARK  166  A    between atoms: _414  and  _416
REMARK  167  A    between atoms: _416  and  _417
REMARK  168  A    between atoms: _416  and  _419
REMARK  169  A    between atoms: _419  and  _420
REMARK  170  A    between atoms: _420  and  _421
REMARK  171  A    between atoms: _421  and  _422
REMARK  172  A    between atoms: _422  and  _423
REMARK  173  A    between atoms: _427  and  _429
REMARK  174  A    between atoms: _429  and  _430
REMARK  175  A    between atoms: _429  and  _432
REMARK  176  A    between atoms: _432  and  _433
REMARK  177  A    between atoms: _438  and  _439
REMARK  178  A    between atoms: _441  and  _443
REMARK  179  A    between atoms: _443  and  _444
REMARK  180  A    between atoms: _443  and  _446
REMARK  181  A    between atoms: _446  and  _447
REMARK  182  A    between atoms: _450  and  _452
REMARK  183  A    between atoms: _452  and  _453
REMARK  184  A    between atoms: _452  and  _455
REMARK  185  A    between atoms: _458  and  _460
REMARK  186  A    between atoms: _460  and  _461
REMARK  187  A    between atoms: _460  and  _463
REMARK  188  A    between atoms: _463  and  _464
REMARK  189  A    between atoms: _467  and  _469
REMARK  190  A    between atoms: _469  and  _470
REMARK  191  A    between atoms: _469  and  _472
REMARK  192  A    between atoms: _475  and  _477
REMARK  193  A    between atoms: _477  and  _478
REMARK  194  A    between atoms: _477  and  _480
REMARK  195  A    between atoms: _480  and  _481
REMARK  196  A    between atoms: _483  and  _485
REMARK  197  A    between atoms: _485  and  _486
REMARK  198  A    between atoms: _485  and  _488
REMARK  199  A    between atoms: _488  and  _489
REMARK  200  A    between atoms: _489  and  _490
REMARK  201  A    between atoms: _490  and  _491
REMARK  202  A    between atoms: _491  and  _492
REMARK  203  A    between atoms: _496  and  _498
REMARK  204  A    between atoms: _498  and  _499
REMARK  205  A    between atoms: _502  and  _504
REMARK  206  A    between atoms: _504  and  _505
REMARK  207  A    between atoms: _507  and  _509
REMARK  208  A    between atoms: _509  and  _510
REMARK  209  A    between atoms: _509  and  _512
REMARK  210  A    between atoms: _512  and  _513
REMARK  211  A    between atoms: _518  and  _520
REMARK  212  A    between atoms: _520  and  _521
REMARK  213  A    between atoms: _520  and  _523
REMARK  214  A    between atoms: _523  and  _524
REMARK  215  A    between atoms: _527  and  _529
REMARK  216  A    between atoms: _529  and  _530
REMARK  217  A    between atoms: _529  and  _532
REMARK  218  A    between atoms: _532  and  _533
REMARK  219  A    between atoms: _536  and  _538
REMARK  220  A    between atoms: _538  and  _539
REMARK  221  A    between atoms: _538  and  _541
REMARK  222  A    between atoms: _541  and  _542
REMARK  223  A    between atoms: _545  and  _547
REMARK  224  A    between atoms: _547  and  _548
REMARK  225  A    between atoms: _547  and  _550
REMARK  226  A    between atoms: _550  and  _551
REMARK  227  A    between atoms: _554  and  _556
REMARK  228  A    between atoms: _556  and  _557
REMARK  229  A    between atoms: _556  and  _559
REMARK  230  A    between atoms: _559  and  _560
REMARK  231  A    between atoms: _560  and  _561
REMARK  232  A    between atoms: _566  and  _568
REMARK  233  A    between atoms: _568  and  _569
REMARK  234  A    between atoms: _568  and  _571
REMARK  235  A    between atoms: _571  and  _572
REMARK  236  A    between atoms: _577  and  _579
REMARK  237  A    between atoms: _579  and  _580
REMARK  238  A    between atoms: _579  and  _582
REMARK  239  A    between atoms: _582  and  _583
REMARK  240  A    between atoms: _585  and  _587
REMARK  241  A    between atoms: _587  and  _588
REMARK  242  A    between atoms: _587  and  _590
REMARK  243  A    between atoms: _590  and  _591
REMARK  244  A    between atoms: _591  and  _592
REMARK  245  A    between atoms: _597  and  _599
REMARK  246  A    between atoms: _599  and  _600
REMARK  247  A    between atoms: _599  and  _602
REMARK  248  A    between atoms: _602  and  _603
REMARK  249  A    between atoms: _608  and  _609
REMARK  250  A    between atoms: _611  and  _613
REMARK  251  A    between atoms: _613  and  _614
REMARK  252  A    between atoms: _613  and  _616
REMARK  253  A    between atoms: _616  and  _617
REMARK  254  A    between atoms: _617  and  _618
REMARK  255  A    between atoms: _618  and  _619
REMARK  256  A    between atoms: _628  and  _630
REMARK  257  A    between atoms: _630  and  _631
REMARK  258  A    between atoms: _630  and  _633
REMARK  259  A    between atoms: _633  and  _634
REMARK  260  A    between atoms: _637  and  _639
REMARK  261  A    between atoms: _639  and  _640
REMARK  262  A    between atoms: _639  and  _642
REMARK  263  A    between atoms: _642  and  _643
REMARK  264  A    between atoms: _645  and  _647
REMARK  265  A    between atoms: _647  and  _648
REMARK  266  A    between atoms: _647  and  _650
REMARK  267  A    between atoms: _650  and  _651
REMARK  268  A    between atoms: _656  and  _658
REMARK  269  A    between atoms: _658  and  _659
REMARK  270  A    between atoms: _658  and  _661
REMARK  271  A    between atoms: _661  and  _662
REMARK  272  A    between atoms: _662  and  _663
REMARK  273  A    between atoms: _663  and  _664
REMARK  274  A    between atoms: _664  and  _665
REMARK  275  A    between atoms: _669  and  _671
REMARK  276  A    between atoms: _671  and  _672
REMARK  277  A    between atoms: _671  and  _674
REMARK  278  A    between atoms: _674  and  _675
REMARK  279  A    between atoms: _678  and  _680
REMARK  280  A    between atoms: _680  and  _681
REMARK  281  A    between atoms: _680  and  _683
REMARK  282  A    between atoms: _683  and  _684
REMARK  283  A    between atoms: _687  and  _689
REMARK  284  A    between atoms: _689  and  _690
REMARK  285  A    between atoms: _689  and  _692
REMARK  286  A    between atoms: _695  and  _697
REMARK  287  A    between atoms: _697  and  _698
REMARK  288  A    between atoms: _697  and  _700
REMARK  289  A    between atoms: _700  and  _701
REMARK  290  A    between atoms: _704  and  _706
REMARK  291  A    between atoms: _706  and  _707
REMARK  292  A    between atoms: _706  and  _709
REMARK  293  A    between atoms: _709  and  _710
REMARK                            x       y       z     vdW  Elec       q    Type
REMARK                         _______ _______ _______ _____ _____    ______ ____
ROOT
ATOM      1  O   HOH     1      64.880  10.309   7.045  0.00  0.00    +0.000 OA
ENDROOT
TORSDOF 0
