REMARK  Name = ../refined-set-2016/3c2o/3c2o_pocket.pdb
REMARK  172 active torsions:
REMARK  status: ('A' for Active; 'I' for Inactive)
REMARK    1  A    between atoms: _1  and  _3
REMARK    2  A    between atoms: _3  and  _4
REMARK    3  A    between atoms: _7  and  _9
REMARK    4  A    between atoms: _9  and  _10
REMARK    5  A    between atoms: _12  and  _14
REMARK    6  A    between atoms: _14  and  _15
REMARK    7  A    between atoms: _14  and  _17
REMARK    8  A    between atoms: _17  and  _18
REMARK    9  A    between atoms: _21  and  _23
REMARK   10  A    between atoms: _23  and  _24
REMARK   11  A    between atoms: _23  and  _26
REMARK   12  A    between atoms: _26  and  _27
REMARK   13  A    between atoms: _27  and  _28
REMARK   14  A    between atoms: _28  and  _29
REMARK   15  A    between atoms: _38  and  _40
REMARK   16  A    between atoms: _40  and  _41
REMARK   17  A    between atoms: _40  and  _43
REMARK   18  A    between atoms: _43  and  _44
REMARK   19  A    between atoms: _44  and  _45
REMARK   20  A    between atoms: _45  and  _46
REMARK   21  A    between atoms: _46  and  _47
REMARK   22  A    between atoms: _51  and  _53
REMARK   23  A    between atoms: _53  and  _54
REMARK   24  A    between atoms: _53  and  _56
REMARK   25  A    between atoms: _56  and  _57
REMARK   26  A    between atoms: _60  and  _62
REMARK   27  A    between atoms: _62  and  _63
REMARK   28  A    between atoms: _62  and  _65
REMARK   29  A    between atoms: _65  and  _66
REMARK   30  A    between atoms: _66  and  _67
REMARK   31  A    between atoms: _67  and  _68
REMARK   32  A    between atoms: _77  and  _79
REMARK   33  A    between atoms: _79  and  _80
REMARK   34  A    between atoms: _79  and  _82
REMARK   35  A    between atoms: _82  and  _83
REMARK   36  A    between atoms: _83  and  _84
REMARK   37  A    between atoms: _84  and  _85
REMARK   38  A    between atoms: _85  and  _86
REMARK   39  A    between atoms: _90  and  _92
REMARK   40  A    between atoms: _92  and  _93
REMARK   41  A    between atoms: _92  and  _95
REMARK   42  A    between atoms: _95  and  _96
REMARK   43  A    between atoms: _99  and  _101
REMARK   44  A    between atoms: _101  and  _102
REMARK   45  A    between atoms: _101  and  _104
REMARK   46  A    between atoms: _104  and  _105
REMARK   47  A    between atoms: _110  and  _112
REMARK   48  A    between atoms: _112  and  _113
REMARK   49  A    between atoms: _112  and  _115
REMARK   50  A    between atoms: _115  and  _116
REMARK   51  A    between atoms: _116  and  _117
REMARK   52  A    between atoms: _117  and  _118
REMARK   53  A    between atoms: _127  and  _129
REMARK   54  A    between atoms: _129  and  _130
REMARK   55  A    between atoms: _129  and  _132
REMARK   56  A    between atoms: _132  and  _133
REMARK   57  A    between atoms: _138  and  _139
REMARK   58  A    between atoms: _141  and  _143
REMARK   59  A    between atoms: _143  and  _144
REMARK   60  A    between atoms: _143  and  _146
REMARK   61  A    between atoms: _146  and  _147
REMARK   62  A    between atoms: _150  and  _152
REMARK   63  A    between atoms: _152  and  _153
REMARK   64  A    between atoms: _152  and  _155
REMARK   65  A    between atoms: _155  and  _156
REMARK   66  A    between atoms: _159  and  _161
REMARK   67  A    between atoms: _161  and  _162
REMARK   68  A    between atoms: _161  and  _164
REMARK   69  A    between atoms: _164  and  _165
REMARK   70  A    between atoms: _165  and  _166
REMARK   71  A    between atoms: _168  and  _170
REMARK   72  A    between atoms: _170  and  _171
REMARK   73  A    between atoms: _170  and  _173
REMARK   74  A    between atoms: _173  and  _174
REMARK   75  A    between atoms: _174  and  _175
REMARK   76  A    between atoms: _177  and  _179
REMARK   77  A    between atoms: _179  and  _180
REMARK   78  A    between atoms: _179  and  _182
REMARK   79  A    between atoms: _182  and  _183
REMARK   80  A    between atoms: _183  and  _184
REMARK   81  A    between atoms: _184  and  _185
REMARK   82  A    between atoms: _185  and  _186
REMARK   83  A    between atoms: _190  and  _192
REMARK   84  A    between atoms: _192  and  _193
REMARK   85  A    between atoms: _192  and  _195
REMARK   86  A    between atoms: _195  and  _196
REMARK   87  A    between atoms: _196  and  _197
REMARK   88  A    between atoms: _200  and  _202
REMARK   89  A    between atoms: _202  and  _203
REMARK   90  A    between atoms: _202  and  _205
REMARK   91  A    between atoms: _205  and  _206
REMARK   92  A    between atoms: _206  and  _207
REMARK   93  A    between atoms: _210  and  _212
REMARK   94  A    between atoms: _212  and  _213
REMARK   95  A    between atoms: _212  and  _215
REMARK   96  A    between atoms: _215  and  _216
REMARK   97  A    between atoms: _216  and  _217
REMARK   98  A    between atoms: _219  and  _221
REMARK   99  A    between atoms: _224  and  _225
REMARK  100  A    between atoms: _228  and  _230
REMARK  101  A    between atoms: _230  and  _231
REMARK  102  A    between atoms: _230  and  _233
REMARK  103  A    between atoms: _233  and  _234
REMARK  104  A    between atoms: _234  and  _235
REMARK  105  A    between atoms: _238  and  _240
REMARK  106  A    between atoms: _240  and  _241
REMARK  107  A    between atoms: _240  and  _243
REMARK  108  A    between atoms: _245  and  _247
REMARK  109  A    between atoms: _247  and  _248
REMARK  110  A    between atoms: _247  and  _250
REMARK  111  A    between atoms: _250  and  _251
REMARK  112  A    between atoms: _253  and  _255
REMARK  113  A    between atoms: _255  and  _256
REMARK  114  A    between atoms: _258  and  _260
REMARK  115  A    between atoms: _260  and  _261
REMARK  116  A    between atoms: _260  and  _263
REMARK  117  A    between atoms: _263  and  _264
REMARK  118  A    between atoms: _267  and  _269
REMARK  119  A    between atoms: _269  and  _270
REMARK  120  A    between atoms: _269  and  _272
REMARK  121  A    between atoms: _272  and  _273
REMARK  122  A    between atoms: _278  and  _279
REMARK  123  A    between atoms: _281  and  _283
REMARK  124  A    between atoms: _283  and  _284
REMARK  125  A    between atoms: _283  and  _286
REMARK  126  A    between atoms: _286  and  _287
REMARK  127  A    between atoms: _289  and  _291
REMARK  128  A    between atoms: _291  and  _292
REMARK  129  A    between atoms: _291  and  _294
REMARK  130  A    between atoms: _294  and  _295
REMARK  131  A    between atoms: _298  and  _300
REMARK  132  A    between atoms: _300  and  _301
REMARK  133  A    between atoms: _300  and  _303
REMARK  134  A    between atoms: _303  and  _304
REMARK  135  A    between atoms: _306  and  _308
REMARK  136  A    between atoms: _308  and  _309
REMARK  137  A    between atoms: _308  and  _311
REMARK  138  A    between atoms: _311  and  _312
REMARK  139  A    between atoms: _317  and  _319
REMARK  140  A    between atoms: _319  and  _320
REMARK  141  A    between atoms: _319  and  _322
REMARK  142  A    between atoms: _322  and  _323
REMARK  143  A    between atoms: _326  and  _328
REMARK  144  A    between atoms: _328  and  _329
REMARK  145  A    between atoms: _328  and  _331
REMARK  146  A    between atoms: _331  and  _332
REMARK  147  A    between atoms: _332  and  _333
REMARK  148  A    between atoms: _336  and  _338
REMARK  149  A    between atoms: _338  and  _339
REMARK  150  A    between atoms: _338  and  _341
REMARK  151  A    between atoms: _341  and  _342
REMARK  152  A    between atoms: _342  and  _343
REMARK  153  A    between atoms: _343  and  _344
REMARK  154  A    between atoms: _353  and  _355
REMARK  155  A    between atoms: _355  and  _356
REMARK  156  A    between atoms: _355  and  _358
REMARK  157  A    between atoms: _358  and  _359
REMARK  158  A    between atoms: _362  and  _364
REMARK  159  A    between atoms: _364  and  _365
REMARK  160  A    between atoms: _364  and  _367
REMARK  161  A    between atoms: _367  and  _368
REMARK  162  A    between atoms: _373  and  _375
REMARK  163  A    between atoms: _375  and  _376
REMARK  164  A    between atoms: _375  and  _378
REMARK  165  A    between atoms: _378  and  _379
REMARK  166  A    between atoms: _379  and  _380
REMARK  167  A    between atoms: _380  and  _381
REMARK  168  A    between atoms: _381  and  _382
REMARK  169  A    between atoms: _386  and  _388
REMARK  170  A    between atoms: _388  and  _389
REMARK  171  A    between atoms: _388  and  _391
REMARK  172  A    between atoms: _391  and  _392
REMARK                            x       y       z     vdW  Elec       q    Type
REMARK                         _______ _______ _______ _____ _____    ______ ____
ROOT
ATOM      1  CA  ARG A   4     -21.178  12.342  -4.632  0.00  0.00    +0.149 C 
ENDROOT
BRANCH   1   4
ATOM      2  C   THR A   3     -22.911  13.314  -3.271  0.00  0.00    +0.243 C 
ATOM      3  O   THR A   3     -22.411  12.966  -2.255  0.00  0.00    -0.273 OA
ATOM      4  N   ARG A   4     -22.406  13.048  -4.456  0.00  0.00    -0.297 N 
ATOM      5  H   ARG A   4     -22.923  13.366  -5.300  0.00  0.00    +0.150 HD
BRANCH   2   6
ATOM      6  CA  THR A   3     -24.191  14.129  -3.270  0.00  0.00    +0.176 C 
BRANCH   6   8
ATOM      7  C   GLY A   2     -25.718  14.696  -1.443  0.00  0.00    +0.243 C 
ATOM      8  N   THR A   3     -24.504  14.597  -1.949  0.00  0.00    -0.295 N 
ATOM      9  H   THR A   3     -23.709  14.881  -1.342  0.00  0.00    +0.150 HD
ATOM     10  O   GLY A   2     -26.702  14.297  -1.990  0.00  0.00    -0.273 OA
BRANCH   7  11
ATOM     11  CA  GLY A   2     -25.815  15.413  -0.112  0.00  0.00    +0.176 C 
BRANCH  11  13
ATOM     12  C   ALA A   1     -28.088  15.767   0.608  0.00  0.00    +0.238 C 
ATOM     13  N   GLY A   2     -26.953  15.101   0.708  0.00  0.00    -0.296 N 
ATOM     14  H   GLY A   2     -26.880  14.328   1.400  0.00  0.00    +0.150 HD
ATOM     15  O   ALA A   1     -28.198  16.762  -0.041  0.00  0.00    -0.274 OA
BRANCH  12  16
ATOM     16  CA  ALA A   1     -29.281  15.203   1.330  0.00  0.00    +0.145 C 
ATOM     17  CB  ALA A   1     -29.797  14.026   0.639  0.00  0.00    +0.028 C 
BRANCH  16  18
ATOM     18  N   ALA A   1     -30.320  16.176   1.507  0.00  0.00    -0.238 NA
ATOM     19  H   ALA A   1     -30.688  16.690   0.681  0.00  0.00    +0.142 HD
ENDBRANCH  16  18
ENDBRANCH  12  16
ENDBRANCH  11  13
ENDBRANCH   7  11
ENDBRANCH   6   8
BRANCH   6  20
ATOM     20  CB  THR A   3     -23.957  15.268  -4.231  0.00  0.00    +0.137 C 
ATOM     21  CG2 THR A   3     -25.156  16.025  -4.396  0.00  0.00    +0.034 C 
BRANCH  20  22
ATOM     22  OG1 THR A   3     -22.953  16.112  -3.708  0.00  0.00    -0.382 OA
ATOM     23  HG1 THR A   3     -23.246  16.468  -2.832  0.00  0.00    +0.210 HD
ENDBRANCH  20  22
ENDBRANCH   6  20
ENDBRANCH   2   6
ENDBRANCH   1   4
BRANCH   1  24
ATOM     24  C   ARG A   4     -20.083  13.311  -5.067  0.00  0.00    +0.241 C 
ATOM     25  N   LYS A   5     -20.386  14.583  -5.036  0.00  0.00    -0.297 N 
ATOM     26  H   LYS A   5     -21.333  14.881  -4.727  0.00  0.00    +0.150 HD
ATOM     27  O   ARG A   4     -19.006  12.931  -5.394  0.00  0.00    -0.273 OA
BRANCH  25  28
ATOM     28  CA  LYS A   5     -19.429  15.562  -5.422  0.00  0.00    +0.149 C 
BRANCH  28  29
ATOM     29  C   LYS A   5     -18.547  15.894  -4.251  0.00  0.00    +0.241 C 
ATOM     30  N   THR A   6     -17.953  14.874  -3.680  0.00  0.00    -0.296 N 
ATOM     31  H   THR A   6     -18.126  13.920  -4.057  0.00  0.00    +0.150 HD
ATOM     32  O   LYS A   5     -18.411  17.010  -3.875  0.00  0.00    -0.273 OA
BRANCH  30  33
ATOM     33  CA  THR A   6     -17.058  15.024  -2.536  0.00  0.00    +0.164 C 
BRANCH  33  34
ATOM     34  C   THR A   6     -15.613  15.276  -2.958  0.00  0.00    +0.229 C 
ATOM     35  O   THR A   6     -15.270  15.184  -4.138  0.00  0.00    -0.286 OA
ENDBRANCH  33  34
BRANCH  33  36
ATOM     36  CB  THR A   6     -17.082  13.764  -1.670  0.00  0.00    +0.136 C 
ATOM     37  CG2 THR A   6     -18.414  13.633  -0.943  0.00  0.00    +0.034 C 
BRANCH  36  38
ATOM     38  OG1 THR A   6     -16.877  12.618  -2.509  0.00  0.00    -0.382 OA
ATOM     39  HG1 THR A   6     -16.001  12.695  -2.963  0.00  0.00    +0.210 HD
ENDBRANCH  36  38
ENDBRANCH  33  36
ENDBRANCH  30  33
ENDBRANCH  28  29
BRANCH  28  40
ATOM     40  CB  LYS A   5     -20.130  16.794  -5.941  0.00  0.00    +0.029 C 
BRANCH  40  41
ATOM     41  CG  LYS A   5     -20.942  16.577  -7.165  0.00  0.00    +0.000 C 
BRANCH  41  42
ATOM     42  CD  LYS A   5     -21.807  17.751  -7.461  0.00  0.00    -0.024 C 
BRANCH  42  43
ATOM     43  CE  LYS A   5     -22.533  17.590  -8.724  0.00  0.00    -0.086 C 
BRANCH  43  44
ATOM     44  NZ  LYS A   5     -23.472  18.657  -8.945  0.00  0.00    +0.380 N 
ATOM     45  HZ1 LYS A   5     -24.166  18.673  -8.170  0.00  0.00    -0.089 HD
ATOM     46  HZ2 LYS A   5     -22.964  19.564  -8.975  0.00  0.00    -0.089 HD
ATOM     47  HZ3 LYS A   5     -23.963  18.503  -9.849  0.00  0.00    -0.089 HD
ENDBRANCH  43  44
ENDBRANCH  42  43
ENDBRANCH  41  42
ENDBRANCH  40  41
ENDBRANCH  28  40
ENDBRANCH  25  28
ENDBRANCH   1  24
BRANCH   1  48
ATOM     48  CB  ARG A   4     -21.351  11.205  -5.630  0.00  0.00    +0.033 C 
BRANCH  48  49
ATOM     49  CG  ARG A   4     -21.511   9.849  -5.013  0.00  0.00    +0.045 C 
BRANCH  49  50
ATOM     50  CD  ARG A   4     -21.297   8.698  -5.990  0.00  0.00    +0.174 C 
BRANCH  50  51
ATOM     51  NE  ARG A   4     -21.850   9.043  -7.256  0.00  0.00    -0.265 N 
ATOM     52  HE  ARG A   4     -22.852   9.320  -7.265  0.00  0.00    +0.259 HD
ATOM     53  CZ  ARG A   4     -21.229   9.049  -8.413  0.00  0.00    +0.342 C 
ATOM     54  NH2 ARG A   4     -20.008   8.671  -8.551  0.00  0.00    -0.292 N 
ATOM     55 HH21 ARG A   4     -19.469   8.342  -7.725  0.00  0.00    +0.255 HD
ATOM     56 HH22 ARG A   4     -19.559   8.694  -9.489  0.00  0.00    +0.255 HD
ATOM     57  NH1 ARG A   4     -21.894   9.429  -9.454  0.00  0.00    -0.292 N 
ATOM     58 HH11 ARG A   4     -22.889   9.717  -9.359  0.00  0.00    +0.255 HD
ATOM     59 HH12 ARG A   4     -21.434   9.446 -10.387  0.00  0.00    +0.255 HD
ENDBRANCH  50  51
ENDBRANCH  49  50
ENDBRANCH  48  49
ENDBRANCH   1  48
TORSDOF 25
REMARK  Name = ../refined-set-2016/3c2o/3c2o_pocket.pdb
REMARK  172 active torsions:
REMARK  status: ('A' for Active; 'I' for Inactive)
REMARK    1  A    between atoms: _1  and  _3
REMARK    2  A    between atoms: _3  and  _4
REMARK    3  A    between atoms: _7  and  _9
REMARK    4  A    between atoms: _9  and  _10
REMARK    5  A    between atoms: _12  and  _14
REMARK    6  A    between atoms: _14  and  _15
REMARK    7  A    between atoms: _14  and  _17
REMARK    8  A    between atoms: _17  and  _18
REMARK    9  A    between atoms: _21  and  _23
REMARK   10  A    between atoms: _23  and  _24
REMARK   11  A    between atoms: _23  and  _26
REMARK   12  A    between atoms: _26  and  _27
REMARK   13  A    between atoms: _27  and  _28
REMARK   14  A    between atoms: _28  and  _29
REMARK   15  A    between atoms: _38  and  _40
REMARK   16  A    between atoms: _40  and  _41
REMARK   17  A    between atoms: _40  and  _43
REMARK   18  A    between atoms: _43  and  _44
REMARK   19  A    between atoms: _44  and  _45
REMARK   20  A    between atoms: _45  and  _46
REMARK   21  A    between atoms: _46  and  _47
REMARK   22  A    between atoms: _51  and  _53
REMARK   23  A    between atoms: _53  and  _54
REMARK   24  A    between atoms: _53  and  _56
REMARK   25  A    between atoms: _56  and  _57
REMARK   26  A    between atoms: _60  and  _62
REMARK   27  A    between atoms: _62  and  _63
REMARK   28  A    between atoms: _62  and  _65
REMARK   29  A    between atoms: _65  and  _66
REMARK   30  A    between atoms: _66  and  _67
REMARK   31  A    between atoms: _67  and  _68
REMARK   32  A    between atoms: _77  and  _79
REMARK   33  A    between atoms: _79  and  _80
REMARK   34  A    between atoms: _79  and  _82
REMARK   35  A    between atoms: _82  and  _83
REMARK   36  A    between atoms: _83  and  _84
REMARK   37  A    between atoms: _84  and  _85
REMARK   38  A    between atoms: _85  and  _86
REMARK   39  A    between atoms: _90  and  _92
REMARK   40  A    between atoms: _92  and  _93
REMARK   41  A    between atoms: _92  and  _95
REMARK   42  A    between atoms: _95  and  _96
REMARK   43  A    between atoms: _99  and  _101
REMARK   44  A    between atoms: _101  and  _102
REMARK   45  A    between atoms: _101  and  _104
REMARK   46  A    between atoms: _104  and  _105
REMARK   47  A    between atoms: _110  and  _112
REMARK   48  A    between atoms: _112  and  _113
REMARK   49  A    between atoms: _112  and  _115
REMARK   50  A    between atoms: _115  and  _116
REMARK   51  A    between atoms: _116  and  _117
REMARK   52  A    between atoms: _117  and  _118
REMARK   53  A    between atoms: _127  and  _129
REMARK   54  A    between atoms: _129  and  _130
REMARK   55  A    between atoms: _129  and  _132
REMARK   56  A    between atoms: _132  and  _133
REMARK   57  A    between atoms: _138  and  _139
REMARK   58  A    between atoms: _141  and  _143
REMARK   59  A    between atoms: _143  and  _144
REMARK   60  A    between atoms: _143  and  _146
REMARK   61  A    between atoms: _146  and  _147
REMARK   62  A    between atoms: _150  and  _152
REMARK   63  A    between atoms: _152  and  _153
REMARK   64  A    between atoms: _152  and  _155
REMARK   65  A    between atoms: _155  and  _156
REMARK   66  A    between atoms: _159  and  _161
REMARK   67  A    between atoms: _161  and  _162
REMARK   68  A    between atoms: _161  and  _164
REMARK   69  A    between atoms: _164  and  _165
REMARK   70  A    between atoms: _165  and  _166
REMARK   71  A    between atoms: _168  and  _170
REMARK   72  A    between atoms: _170  and  _171
REMARK   73  A    between atoms: _170  and  _173
REMARK   74  A    between atoms: _173  and  _174
REMARK   75  A    between atoms: _174  and  _175
REMARK   76  A    between atoms: _177  and  _179
REMARK   77  A    between atoms: _179  and  _180
REMARK   78  A    between atoms: _179  and  _182
REMARK   79  A    between atoms: _182  and  _183
REMARK   80  A    between atoms: _183  and  _184
REMARK   81  A    between atoms: _184  and  _185
REMARK   82  A    between atoms: _185  and  _186
REMARK   83  A    between atoms: _190  and  _192
REMARK   84  A    between atoms: _192  and  _193
REMARK   85  A    between atoms: _192  and  _195
REMARK   86  A    between atoms: _195  and  _196
REMARK   87  A    between atoms: _196  and  _197
REMARK   88  A    between atoms: _200  and  _202
REMARK   89  A    between atoms: _202  and  _203
REMARK   90  A    between atoms: _202  and  _205
REMARK   91  A    between atoms: _205  and  _206
REMARK   92  A    between atoms: _206  and  _207
REMARK   93  A    between atoms: _210  and  _212
REMARK   94  A    between atoms: _212  and  _213
REMARK   95  A    between atoms: _212  and  _215
REMARK   96  A    between atoms: _215  and  _216
REMARK   97  A    between atoms: _216  and  _217
REMARK   98  A    between atoms: _219  and  _221
REMARK   99  A    between atoms: _224  and  _225
REMARK  100  A    between atoms: _228  and  _230
REMARK  101  A    between atoms: _230  and  _231
REMARK  102  A    between atoms: _230  and  _233
REMARK  103  A    between atoms: _233  and  _234
REMARK  104  A    between atoms: _234  and  _235
REMARK  105  A    between atoms: _238  and  _240
REMARK  106  A    between atoms: _240  and  _241
REMARK  107  A    between atoms: _240  and  _243
REMARK  108  A    between atoms: _245  and  _247
REMARK  109  A    between atoms: _247  and  _248
REMARK  110  A    between atoms: _247  and  _250
REMARK  111  A    between atoms: _250  and  _251
REMARK  112  A    between atoms: _253  and  _255
REMARK  113  A    between atoms: _255  and  _256
REMARK  114  A    between atoms: _258  and  _260
REMARK  115  A    between atoms: _260  and  _261
REMARK  116  A    between atoms: _260  and  _263
REMARK  117  A    between atoms: _263  and  _264
REMARK  118  A    between atoms: _267  and  _269
REMARK  119  A    between atoms: _269  and  _270
REMARK  120  A    between atoms: _269  and  _272
REMARK  121  A    between atoms: _272  and  _273
REMARK  122  A    between atoms: _278  and  _279
REMARK  123  A    between atoms: _281  and  _283
REMARK  124  A    between atoms: _283  and  _284
REMARK  125  A    between atoms: _283  and  _286
REMARK  126  A    between atoms: _286  and  _287
REMARK  127  A    between atoms: _289  and  _291
REMARK  128  A    between atoms: _291  and  _292
REMARK  129  A    between atoms: _291  and  _294
REMARK  130  A    between atoms: _294  and  _295
REMARK  131  A    between atoms: _298  and  _300
REMARK  132  A    between atoms: _300  and  _301
REMARK  133  A    between atoms: _300  and  _303
REMARK  134  A    between atoms: _303  and  _304
REMARK  135  A    between atoms: _306  and  _308
REMARK  136  A    between atoms: _308  and  _309
REMARK  137  A    between atoms: _308  and  _311
REMARK  138  A    between atoms: _311  and  _312
REMARK  139  A    between atoms: _317  and  _319
REMARK  140  A    between atoms: _319  and  _320
REMARK  141  A    between atoms: _319  and  _322
REMARK  142  A    between atoms: _322  and  _323
REMARK  143  A    between atoms: _326  and  _328
REMARK  144  A    between atoms: _328  and  _329
REMARK  145  A    between atoms: _328  and  _331
REMARK  146  A    between atoms: _331  and  _332
REMARK  147  A    between atoms: _332  and  _333
REMARK  148  A    between atoms: _336  and  _338
REMARK  149  A    between atoms: _338  and  _339
REMARK  150  A    between atoms: _338  and  _341
REMARK  151  A    between atoms: _341  and  _342
REMARK  152  A    between atoms: _342  and  _343
REMARK  153  A    between atoms: _343  and  _344
REMARK  154  A    between atoms: _353  and  _355
REMARK  155  A    between atoms: _355  and  _356
REMARK  156  A    between atoms: _355  and  _358
REMARK  157  A    between atoms: _358  and  _359
REMARK  158  A    between atoms: _362  and  _364
REMARK  159  A    between atoms: _364  and  _365
REMARK  160  A    between atoms: _364  and  _367
REMARK  161  A    between atoms: _367  and  _368
REMARK  162  A    between atoms: _373  and  _375
REMARK  163  A    between atoms: _375  and  _376
REMARK  164  A    between atoms: _375  and  _378
REMARK  165  A    between atoms: _378  and  _379
REMARK  166  A    between atoms: _379  and  _380
REMARK  167  A    between atoms: _380  and  _381
REMARK  168  A    between atoms: _381  and  _382
REMARK  169  A    between atoms: _386  and  _388
REMARK  170  A    between atoms: _388  and  _389
REMARK  171  A    between atoms: _388  and  _391
REMARK  172  A    between atoms: _391  and  _392
REMARK                            x       y       z     vdW  Elec       q    Type
REMARK                         _______ _______ _______ _____ _____    ______ ____
ROOT
ATOM      1  NE  ARG A   1     -17.669   9.763  -2.278  0.00  0.00    -0.265 N 
ATOM      2  HE  ARG A   1     -17.639  10.784  -2.084  0.00  0.00    +0.259 HD
ATOM      3  CZ  ARG A   1     -17.769   9.378  -3.545  0.00  0.00    +0.342 C 
ATOM      4  NH2 ARG A   1     -17.810   8.088  -3.847  0.00  0.00    -0.292 N 
ATOM      5 HH21 ARG A   1     -17.764   7.375  -3.091  0.00  0.00    +0.255 HD
ATOM      6 HH22 ARG A   1     -17.888   7.789  -4.840  0.00  0.00    +0.255 HD
ATOM      7  NH1 ARG A   1     -17.829  10.289  -4.511  0.00  0.00    -0.292 N 
ATOM      8 HH11 ARG A   1     -17.798  11.301  -4.274  0.00  0.00    +0.255 HD
ATOM      9 HH12 ARG A   1     -17.907   9.990  -5.504  0.00  0.00    +0.255 HD
ENDROOT
BRANCH   1  10
ATOM     10  CD  ARG A   1     -17.598   8.853  -1.139  0.00  0.00    +0.174 C 
BRANCH  10  11
ATOM     11  CG  ARG A   1     -17.202   9.588   0.141  0.00  0.00    +0.045 C 
BRANCH  11  12
ATOM     12  CB  ARG A   1     -15.750  10.040   0.075  0.00  0.00    +0.029 C 
BRANCH  12  13
ATOM     13  CA  ARG A   1     -15.347  11.045   1.156  0.00  0.00    +0.133 C 
BRANCH  13  14
ATOM     14  N   ARG A   1     -13.917  11.324   1.076  0.00  0.00    -0.239 NA
ATOM     15  H   ARG A   1     -13.318  10.743   0.455  0.00  0.00    +0.142 HD
ENDBRANCH  13  14
BRANCH  13  16
ATOM     16  C   ARG A   1     -15.864  10.574   2.512  0.00  0.00    +0.224 C 
ATOM     17  O   ARG A   1     -16.923  11.006   2.956  0.00  0.00    -0.287 OA
ENDBRANCH  13  16
ENDBRANCH  12  13
ENDBRANCH  11  12
ENDBRANCH  10  11
ENDBRANCH   1  10
TORSDOF 6
REMARK  Name = ../refined-set-2016/3c2o/3c2o_pocket.pdb
REMARK  172 active torsions:
REMARK  status: ('A' for Active; 'I' for Inactive)
REMARK    1  A    between atoms: _1  and  _3
REMARK    2  A    between atoms: _3  and  _4
REMARK    3  A    between atoms: _7  and  _9
REMARK    4  A    between atoms: _9  and  _10
REMARK    5  A    between atoms: _12  and  _14
REMARK    6  A    between atoms: _14  and  _15
REMARK    7  A    between atoms: _14  and  _17
REMARK    8  A    between atoms: _17  and  _18
REMARK    9  A    between atoms: _21  and  _23
REMARK   10  A    between atoms: _23  and  _24
REMARK   11  A    between atoms: _23  and  _26
REMARK   12  A    between atoms: _26  and  _27
REMARK   13  A    between atoms: _27  and  _28
REMARK   14  A    between atoms: _28  and  _29
REMARK   15  A    between atoms: _38  and  _40
REMARK   16  A    between atoms: _40  and  _41
REMARK   17  A    between atoms: _40  and  _43
REMARK   18  A    between atoms: _43  and  _44
REMARK   19  A    between atoms: _44  and  _45
REMARK   20  A    between atoms: _45  and  _46
REMARK   21  A    between atoms: _46  and  _47
REMARK   22  A    between atoms: _51  and  _53
REMARK   23  A    between atoms: _53  and  _54
REMARK   24  A    between atoms: _53  and  _56
REMARK   25  A    between atoms: _56  and  _57
REMARK   26  A    between atoms: _60  and  _62
REMARK   27  A    between atoms: _62  and  _63
REMARK   28  A    between atoms: _62  and  _65
REMARK   29  A    between atoms: _65  and  _66
REMARK   30  A    between atoms: _66  and  _67
REMARK   31  A    between atoms: _67  and  _68
REMARK   32  A    between atoms: _77  and  _79
REMARK   33  A    between atoms: _79  and  _80
REMARK   34  A    between atoms: _79  and  _82
REMARK   35  A    between atoms: _82  and  _83
REMARK   36  A    between atoms: _83  and  _84
REMARK   37  A    between atoms: _84  and  _85
REMARK   38  A    between atoms: _85  and  _86
REMARK   39  A    between atoms: _90  and  _92
REMARK   40  A    between atoms: _92  and  _93
REMARK   41  A    between atoms: _92  and  _95
REMARK   42  A    between atoms: _95  and  _96
REMARK   43  A    between atoms: _99  and  _101
REMARK   44  A    between atoms: _101  and  _102
REMARK   45  A    between atoms: _101  and  _104
REMARK   46  A    between atoms: _104  and  _105
REMARK   47  A    between atoms: _110  and  _112
REMARK   48  A    between atoms: _112  and  _113
REMARK   49  A    between atoms: _112  and  _115
REMARK   50  A    between atoms: _115  and  _116
REMARK   51  A    between atoms: _116  and  _117
REMARK   52  A    between atoms: _117  and  _118
REMARK   53  A    between atoms: _127  and  _129
REMARK   54  A    between atoms: _129  and  _130
REMARK   55  A    between atoms: _129  and  _132
REMARK   56  A    between atoms: _132  and  _133
REMARK   57  A    between atoms: _138  and  _139
REMARK   58  A    between atoms: _141  and  _143
REMARK   59  A    between atoms: _143  and  _144
REMARK   60  A    between atoms: _143  and  _146
REMARK   61  A    between atoms: _146  and  _147
REMARK   62  A    between atoms: _150  and  _152
REMARK   63  A    between atoms: _152  and  _153
REMARK   64  A    between atoms: _152  and  _155
REMARK   65  A    between atoms: _155  and  _156
REMARK   66  A    between atoms: _159  and  _161
REMARK   67  A    between atoms: _161  and  _162
REMARK   68  A    between atoms: _161  and  _164
REMARK   69  A    between atoms: _164  and  _165
REMARK   70  A    between atoms: _165  and  _166
REMARK   71  A    between atoms: _168  and  _170
REMARK   72  A    between atoms: _170  and  _171
REMARK   73  A    between atoms: _170  and  _173
REMARK   74  A    between atoms: _173  and  _174
REMARK   75  A    between atoms: _174  and  _175
REMARK   76  A    between atoms: _177  and  _179
REMARK   77  A    between atoms: _179  and  _180
REMARK   78  A    between atoms: _179  and  _182
REMARK   79  A    between atoms: _182  and  _183
REMARK   80  A    between atoms: _183  and  _184
REMARK   81  A    between atoms: _184  and  _185
REMARK   82  A    between atoms: _185  and  _186
REMARK   83  A    between atoms: _190  and  _192
REMARK   84  A    between atoms: _192  and  _193
REMARK   85  A    between atoms: _192  and  _195
REMARK   86  A    between atoms: _195  and  _196
REMARK   87  A    between atoms: _196  and  _197
REMARK   88  A    between atoms: _200  and  _202
REMARK   89  A    between atoms: _202  and  _203
REMARK   90  A    between atoms: _202  and  _205
REMARK   91  A    between atoms: _205  and  _206
REMARK   92  A    between atoms: _206  and  _207
REMARK   93  A    between atoms: _210  and  _212
REMARK   94  A    between atoms: _212  and  _213
REMARK   95  A    between atoms: _212  and  _215
REMARK   96  A    between atoms: _215  and  _216
REMARK   97  A    between atoms: _216  and  _217
REMARK   98  A    between atoms: _219  and  _221
REMARK   99  A    between atoms: _224  and  _225
REMARK  100  A    between atoms: _228  and  _230
REMARK  101  A    between atoms: _230  and  _231
REMARK  102  A    between atoms: _230  and  _233
REMARK  103  A    between atoms: _233  and  _234
REMARK  104  A    between atoms: _234  and  _235
REMARK  105  A    between atoms: _238  and  _240
REMARK  106  A    between atoms: _240  and  _241
REMARK  107  A    between atoms: _240  and  _243
REMARK  108  A    between atoms: _245  and  _247
REMARK  109  A    between atoms: _247  and  _248
REMARK  110  A    between atoms: _247  and  _250
REMARK  111  A    between atoms: _250  and  _251
REMARK  112  A    between atoms: _253  and  _255
REMARK  113  A    between atoms: _255  and  _256
REMARK  114  A    between atoms: _258  and  _260
REMARK  115  A    between atoms: _260  and  _261
REMARK  116  A    between atoms: _260  and  _263
REMARK  117  A    between atoms: _263  and  _264
REMARK  118  A    between atoms: _267  and  _269
REMARK  119  A    between atoms: _269  and  _270
REMARK  120  A    between atoms: _269  and  _272
REMARK  121  A    between atoms: _272  and  _273
REMARK  122  A    between atoms: _278  and  _279
REMARK  123  A    between atoms: _281  and  _283
REMARK  124  A    between atoms: _283  and  _284
REMARK  125  A    between atoms: _283  and  _286
REMARK  126  A    between atoms: _286  and  _287
REMARK  127  A    between atoms: _289  and  _291
REMARK  128  A    between atoms: _291  and  _292
REMARK  129  A    between atoms: _291  and  _294
REMARK  130  A    between atoms: _294  and  _295
REMARK  131  A    between atoms: _298  and  _300
REMARK  132  A    between atoms: _300  and  _301
REMARK  133  A    between atoms: _300  and  _303
REMARK  134  A    between atoms: _303  and  _304
REMARK  135  A    between atoms: _306  and  _308
REMARK  136  A    between atoms: _308  and  _309
REMARK  137  A    between atoms: _308  and  _311
REMARK  138  A    between atoms: _311  and  _312
REMARK  139  A    between atoms: _317  and  _319
REMARK  140  A    between atoms: _319  and  _320
REMARK  141  A    between atoms: _319  and  _322
REMARK  142  A    between atoms: _322  and  _323
REMARK  143  A    between atoms: _326  and  _328
REMARK  144  A    between atoms: _328  and  _329
REMARK  145  A    between atoms: _328  and  _331
REMARK  146  A    between atoms: _331  and  _332
REMARK  147  A    between atoms: _332  and  _333
REMARK  148  A    between atoms: _336  and  _338
REMARK  149  A    between atoms: _338  and  _339
REMARK  150  A    between atoms: _338  and  _341
REMARK  151  A    between atoms: _341  and  _342
REMARK  152  A    between atoms: _342  and  _343
REMARK  153  A    between atoms: _343  and  _344
REMARK  154  A    between atoms: _353  and  _355
REMARK  155  A    between atoms: _355  and  _356
REMARK  156  A    between atoms: _355  and  _358
REMARK  157  A    between atoms: _358  and  _359
REMARK  158  A    between atoms: _362  and  _364
REMARK  159  A    between atoms: _364  and  _365
REMARK  160  A    between atoms: _364  and  _367
REMARK  161  A    between atoms: _367  and  _368
REMARK  162  A    between atoms: _373  and  _375
REMARK  163  A    between atoms: _375  and  _376
REMARK  164  A    between atoms: _375  and  _378
REMARK  165  A    between atoms: _378  and  _379
REMARK  166  A    between atoms: _379  and  _380
REMARK  167  A    between atoms: _380  and  _381
REMARK  168  A    between atoms: _381  and  _382
REMARK  169  A    between atoms: _386  and  _388
REMARK  170  A    between atoms: _388  and  _389
REMARK  171  A    between atoms: _388  and  _391
REMARK  172  A    between atoms: _391  and  _392
REMARK                            x       y       z     vdW  Elec       q    Type
REMARK                         _______ _______ _______ _____ _____    ______ ____
ROOT
ATOM      1  CG  LYS A   1     -20.006  10.597   2.486  0.00  0.00    -0.000 C 
ENDROOT
BRANCH   1   2
ATOM      2  CB  LYS A   1     -20.087  10.742   4.002  0.00  0.00    +0.025 C 
BRANCH   2   3
ATOM      3  CA  LYS A   1     -20.098  12.183   4.514  0.00  0.00    +0.133 C 
BRANCH   3   4
ATOM      4  N   LYS A   1     -18.780  12.794   4.356  0.00  0.00    -0.239 NA
ATOM      5  H   LYS A   1     -17.982  12.206   4.042  0.00  0.00    +0.142 HD
ENDBRANCH   3   4
BRANCH   3   6
ATOM      6  C   LYS A   1     -20.401  12.183   6.009  0.00  0.00    +0.224 C 
ATOM      7  O   LYS A   1     -21.500  12.528   6.454  0.00  0.00    -0.287 OA
ENDBRANCH   3   6
ENDBRANCH   2   3
ENDBRANCH   1   2
BRANCH   1   8
ATOM      8  CD  LYS A   1     -21.307  11.022   1.794  0.00  0.00    -0.024 C 
BRANCH   8   9
ATOM      9  CE  LYS A   1     -21.265  10.673   0.307  0.00  0.00    -0.086 C 
BRANCH   9  10
ATOM     10  NZ  LYS A   1     -22.465  11.161  -0.440  0.00  0.00    +0.380 N 
ATOM     11  HZ1 LYS A   1     -23.322  10.730  -0.037  0.00  0.00    -0.089 HD
ATOM     12  HZ2 LYS A   1     -22.525  12.196  -0.359  0.00  0.00    -0.089 HD
ATOM     13  HZ3 LYS A   1     -22.380  10.895  -1.442  0.00  0.00    -0.089 HD
ENDBRANCH   9  10
ENDBRANCH   8   9
ENDBRANCH   1   8
TORSDOF 7
REMARK  Name = ../refined-set-2016/3c2o/3c2o_pocket.pdb
REMARK  172 active torsions:
REMARK  status: ('A' for Active; 'I' for Inactive)
REMARK    1  A    between atoms: _1  and  _3
REMARK    2  A    between atoms: _3  and  _4
REMARK    3  A    between atoms: _7  and  _9
REMARK    4  A    between atoms: _9  and  _10
REMARK    5  A    between atoms: _12  and  _14
REMARK    6  A    between atoms: _14  and  _15
REMARK    7  A    between atoms: _14  and  _17
REMARK    8  A    between atoms: _17  and  _18
REMARK    9  A    between atoms: _21  and  _23
REMARK   10  A    between atoms: _23  and  _24
REMARK   11  A    between atoms: _23  and  _26
REMARK   12  A    between atoms: _26  and  _27
REMARK   13  A    between atoms: _27  and  _28
REMARK   14  A    between atoms: _28  and  _29
REMARK   15  A    between atoms: _38  and  _40
REMARK   16  A    between atoms: _40  and  _41
REMARK   17  A    between atoms: _40  and  _43
REMARK   18  A    between atoms: _43  and  _44
REMARK   19  A    between atoms: _44  and  _45
REMARK   20  A    between atoms: _45  and  _46
REMARK   21  A    between atoms: _46  and  _47
REMARK   22  A    between atoms: _51  and  _53
REMARK   23  A    between atoms: _53  and  _54
REMARK   24  A    between atoms: _53  and  _56
REMARK   25  A    between atoms: _56  and  _57
REMARK   26  A    between atoms: _60  and  _62
REMARK   27  A    between atoms: _62  and  _63
REMARK   28  A    between atoms: _62  and  _65
REMARK   29  A    between atoms: _65  and  _66
REMARK   30  A    between atoms: _66  and  _67
REMARK   31  A    between atoms: _67  and  _68
REMARK   32  A    between atoms: _77  and  _79
REMARK   33  A    between atoms: _79  and  _80
REMARK   34  A    between atoms: _79  and  _82
REMARK   35  A    between atoms: _82  and  _83
REMARK   36  A    between atoms: _83  and  _84
REMARK   37  A    between atoms: _84  and  _85
REMARK   38  A    between atoms: _85  and  _86
REMARK   39  A    between atoms: _90  and  _92
REMARK   40  A    between atoms: _92  and  _93
REMARK   41  A    between atoms: _92  and  _95
REMARK   42  A    between atoms: _95  and  _96
REMARK   43  A    between atoms: _99  and  _101
REMARK   44  A    between atoms: _101  and  _102
REMARK   45  A    between atoms: _101  and  _104
REMARK   46  A    between atoms: _104  and  _105
REMARK   47  A    between atoms: _110  and  _112
REMARK   48  A    between atoms: _112  and  _113
REMARK   49  A    between atoms: _112  and  _115
REMARK   50  A    between atoms: _115  and  _116
REMARK   51  A    between atoms: _116  and  _117
REMARK   52  A    between atoms: _117  and  _118
REMARK   53  A    between atoms: _127  and  _129
REMARK   54  A    between atoms: _129  and  _130
REMARK   55  A    between atoms: _129  and  _132
REMARK   56  A    between atoms: _132  and  _133
REMARK   57  A    between atoms: _138  and  _139
REMARK   58  A    between atoms: _141  and  _143
REMARK   59  A    between atoms: _143  and  _144
REMARK   60  A    between atoms: _143  and  _146
REMARK   61  A    between atoms: _146  and  _147
REMARK   62  A    between atoms: _150  and  _152
REMARK   63  A    between atoms: _152  and  _153
REMARK   64  A    between atoms: _152  and  _155
REMARK   65  A    between atoms: _155  and  _156
REMARK   66  A    between atoms: _159  and  _161
REMARK   67  A    between atoms: _161  and  _162
REMARK   68  A    between atoms: _161  and  _164
REMARK   69  A    between atoms: _164  and  _165
REMARK   70  A    between atoms: _165  and  _166
REMARK   71  A    between atoms: _168  and  _170
REMARK   72  A    between atoms: _170  and  _171
REMARK   73  A    between atoms: _170  and  _173
REMARK   74  A    between atoms: _173  and  _174
REMARK   75  A    between atoms: _174  and  _175
REMARK   76  A    between atoms: _177  and  _179
REMARK   77  A    between atoms: _179  and  _180
REMARK   78  A    between atoms: _179  and  _182
REMARK   79  A    between atoms: _182  and  _183
REMARK   80  A    between atoms: _183  and  _184
REMARK   81  A    between atoms: _184  and  _185
REMARK   82  A    between atoms: _185  and  _186
REMARK   83  A    between atoms: _190  and  _192
REMARK   84  A    between atoms: _192  and  _193
REMARK   85  A    between atoms: _192  and  _195
REMARK   86  A    between atoms: _195  and  _196
REMARK   87  A    between atoms: _196  and  _197
REMARK   88  A    between atoms: _200  and  _202
REMARK   89  A    between atoms: _202  and  _203
REMARK   90  A    between atoms: _202  and  _205
REMARK   91  A    between atoms: _205  and  _206
REMARK   92  A    between atoms: _206  and  _207
REMARK   93  A    between atoms: _210  and  _212
REMARK   94  A    between atoms: _212  and  _213
REMARK   95  A    between atoms: _212  and  _215
REMARK   96  A    between atoms: _215  and  _216
REMARK   97  A    between atoms: _216  and  _217
REMARK   98  A    between atoms: _219  and  _221
REMARK   99  A    between atoms: _224  and  _225
REMARK  100  A    between atoms: _228  and  _230
REMARK  101  A    between atoms: _230  and  _231
REMARK  102  A    between atoms: _230  and  _233
REMARK  103  A    between atoms: _233  and  _234
REMARK  104  A    between atoms: _234  and  _235
REMARK  105  A    between atoms: _238  and  _240
REMARK  106  A    between atoms: _240  and  _241
REMARK  107  A    between atoms: _240  and  _243
REMARK  108  A    between atoms: _245  and  _247
REMARK  109  A    between atoms: _247  and  _248
REMARK  110  A    between atoms: _247  and  _250
REMARK  111  A    between atoms: _250  and  _251
REMARK  112  A    between atoms: _253  and  _255
REMARK  113  A    between atoms: _255  and  _256
REMARK  114  A    between atoms: _258  and  _260
REMARK  115  A    between atoms: _260  and  _261
REMARK  116  A    between atoms: _260  and  _263
REMARK  117  A    between atoms: _263  and  _264
REMARK  118  A    between atoms: _267  and  _269
REMARK  119  A    between atoms: _269  and  _270
REMARK  120  A    between atoms: _269  and  _272
REMARK  121  A    between atoms: _272  and  _273
REMARK  122  A    between atoms: _278  and  _279
REMARK  123  A    between atoms: _281  and  _283
REMARK  124  A    between atoms: _283  and  _284
REMARK  125  A    between atoms: _283  and  _286
REMARK  126  A    between atoms: _286  and  _287
REMARK  127  A    between atoms: _289  and  _291
REMARK  128  A    between atoms: _291  and  _292
REMARK  129  A    between atoms: _291  and  _294
REMARK  130  A    between atoms: _294  and  _295
REMARK  131  A    between atoms: _298  and  _300
REMARK  132  A    between atoms: _300  and  _301
REMARK  133  A    between atoms: _300  and  _303
REMARK  134  A    between atoms: _303  and  _304
REMARK  135  A    between atoms: _306  and  _308
REMARK  136  A    between atoms: _308  and  _309
REMARK  137  A    between atoms: _308  and  _311
REMARK  138  A    between atoms: _311  and  _312
REMARK  139  A    between atoms: _317  and  _319
REMARK  140  A    between atoms: _319  and  _320
REMARK  141  A    between atoms: _319  and  _322
REMARK  142  A    between atoms: _322  and  _323
REMARK  143  A    between atoms: _326  and  _328
REMARK  144  A    between atoms: _328  and  _329
REMARK  145  A    between atoms: _328  and  _331
REMARK  146  A    between atoms: _331  and  _332
REMARK  147  A    between atoms: _332  and  _333
REMARK  148  A    between atoms: _336  and  _338
REMARK  149  A    between atoms: _338  and  _339
REMARK  150  A    between atoms: _338  and  _341
REMARK  151  A    between atoms: _341  and  _342
REMARK  152  A    between atoms: _342  and  _343
REMARK  153  A    between atoms: _343  and  _344
REMARK  154  A    between atoms: _353  and  _355
REMARK  155  A    between atoms: _355  and  _356
REMARK  156  A    between atoms: _355  and  _358
REMARK  157  A    between atoms: _358  and  _359
REMARK  158  A    between atoms: _362  and  _364
REMARK  159  A    between atoms: _364  and  _365
REMARK  160  A    between atoms: _364  and  _367
REMARK  161  A    between atoms: _367  and  _368
REMARK  162  A    between atoms: _373  and  _375
REMARK  163  A    between atoms: _375  and  _376
REMARK  164  A    between atoms: _375  and  _378
REMARK  165  A    between atoms: _378  and  _379
REMARK  166  A    between atoms: _379  and  _380
REMARK  167  A    between atoms: _380  and  _381
REMARK  168  A    between atoms: _381  and  _382
REMARK  169  A    between atoms: _386  and  _388
REMARK  170  A    between atoms: _388  and  _389
REMARK  171  A    between atoms: _388  and  _391
REMARK  172  A    between atoms: _391  and  _392
REMARK                            x       y       z     vdW  Elec       q    Type
REMARK                         _______ _______ _______ _____ _____    ______ ____
ROOT
ATOM      1  CA  ARG A   3     -25.857   7.329  -1.435  0.00  0.00    +0.149 C 
ENDROOT
BRANCH   1   4
ATOM      2  C   HIS A   2     -26.450   9.175   0.035  0.00  0.00    +0.241 C 
ATOM      3  O   HIS A   2     -25.557   8.934   0.793  0.00  0.00    -0.273 OA
ATOM      4  N   ARG A   3     -26.643   8.489  -1.074  0.00  0.00    -0.297 N 
ATOM      5  H   ARG A   3     -27.397   8.797  -1.721  0.00  0.00    +0.150 HD
BRANCH   2   6
ATOM      6  CA  HIS A   2     -27.426  10.323   0.311  0.00  0.00    +0.155 C 
BRANCH   6   8
ATOM      7  C   THR A   1     -25.898  11.445   1.784  0.00  0.00    +0.241 C 
ATOM      8  N   HIS A   2     -27.116  11.024   1.520  0.00  0.00    -0.297 N 
ATOM      9  H   HIS A   2     -27.874  11.205   2.208  0.00  0.00    +0.150 HD
ATOM     10  O   THR A   1     -25.099  11.688   0.922  0.00  0.00    -0.274 OA
BRANCH   7  11
ATOM     11  CA  THR A   1     -25.553  11.614   3.241  0.00  0.00    +0.172 C 
BRANCH  11  12
ATOM     12  N   THR A   1     -26.731  11.723   4.058  0.00  0.00    -0.236 NA
ATOM     13  H   THR A   1     -27.010  10.917   4.653  0.00  0.00    +0.142 HD
ENDBRANCH  11  12
BRANCH  11  14
ATOM     14  CB  THR A   1     -24.707  10.451   3.648  0.00  0.00    +0.135 C 
ATOM     15  CG2 THR A   1     -24.078  10.657   4.948  0.00  0.00    +0.034 C 
BRANCH  14  16
ATOM     16  OG1 THR A   1     -25.497   9.290   3.692  0.00  0.00    -0.383 OA
ATOM     17  HG1 THR A   1     -25.883   9.121   2.796  0.00  0.00    +0.210 HD
ENDBRANCH  14  16
ENDBRANCH  11  14
ENDBRANCH   7  11
ENDBRANCH   6   8
BRANCH   6  18
ATOM     18  CB  HIS A   2     -27.322  11.264  -0.859  0.00  0.00    +0.076 C 
BRANCH  18  19
ATOM     19  CG  HIS A   2     -28.155  10.869  -2.029  0.00  0.00    +0.082 A 
ATOM     20  ND1 HIS A   2     -29.052  11.719  -2.617  0.00  0.00    -0.227 NA
ATOM     21  CE1 HIS A   2     -29.633  11.115  -3.625  0.00  0.00    +0.199 A 
ATOM     22  NE2 HIS A   2     -29.150   9.899  -3.709  0.00  0.00    -0.221 NA
ATOM     23  CD2 HIS A   2     -28.212   9.725  -2.735  0.00  0.00    +0.115 A 
ENDBRANCH  18  19
ENDBRANCH   6  18
ENDBRANCH   2   6
ENDBRANCH   1   4
BRANCH   1  24
ATOM     24  C   ARG A   3     -24.345   7.525  -1.241  0.00  0.00    +0.241 C 
ATOM     25  N   TYR A   4     -23.664   6.554  -0.666  0.00  0.00    -0.297 N 
ATOM     26  H   TYR A   4     -24.136   5.663  -0.411  0.00  0.00    +0.150 HD
ATOM     27  O   ARG A   3     -23.812   8.565  -1.557  0.00  0.00    -0.273 OA
BRANCH  25  28
ATOM     28  CA  TYR A   4     -22.252   6.738  -0.391  0.00  0.00    +0.153 C 
BRANCH  28  29
ATOM     29  C   TYR A   4     -21.406   6.748  -1.663  0.00  0.00    +0.241 C 
ATOM     30  O   TYR A   4     -20.563   7.634  -1.847  0.00  0.00    -0.273 OA
ATOM     31  N   ASP A   5     -21.640   5.774  -2.538  0.00  0.00    -0.297 N 
ATOM     32  H   ASP A   5     -22.379   5.073  -2.328  0.00  0.00    +0.150 HD
BRANCH  31  33
ATOM     33  CA  ASP A   5     -20.889   5.661  -3.787  0.00  0.00    +0.160 C 
BRANCH  33  34
ATOM     34  C   ASP A   5     -21.699   4.989  -4.900  0.00  0.00    +0.241 C 
ATOM     35  O   ASP A   5     -22.928   4.918  -4.834  0.00  0.00    -0.273 OA
ATOM     36  N   LEU A   6     -21.000   4.501  -5.923  0.00  0.00    -0.298 N 
ATOM     37  H   LEU A   6     -19.965   4.599  -5.916  0.00  0.00    +0.150 HD
BRANCH  36  38
ATOM     38  CA  LEU A   6     -21.639   3.831  -7.059  0.00  0.00    +0.137 C 
BRANCH  38  39
ATOM     39  C   LEU A   6     -21.957   2.369  -6.760  0.00  0.00    +0.227 C 
ATOM     40  O   LEU A   6     -22.642   1.708  -7.538  0.00  0.00    -0.286 OA
ENDBRANCH  38  39
BRANCH  38  41
ATOM     41  CB  LEU A   6     -20.737   3.900  -8.302  0.00  0.00    +0.028 C 
BRANCH  41  42
ATOM     42  CG  LEU A   6     -20.493   5.277  -8.919  0.00  0.00    +0.002 C 
ATOM     43  CD2 LEU A   6     -21.833   5.896  -9.293  0.00  0.00    +0.000 C 
ATOM     44  CD1 LEU A   6     -19.598   5.145 -10.156  0.00  0.00    +0.000 C 
ENDBRANCH  41  42
ENDBRANCH  38  41
ENDBRANCH  36  38
ENDBRANCH  33  34
BRANCH  33  45
ATOM     45  CB  ASP A   5     -19.603   4.871  -3.537  0.00  0.00    +0.143 C 
BRANCH  45  46
ATOM     46  CG  ASP A   5     -19.847   3.616  -2.726  0.00  0.00    +0.367 C 
ATOM     47  OD2 ASP A   5     -19.172   3.427  -1.686  0.00  0.00    -0.246 OA
ATOM     48  OD1 ASP A   5     -20.724   2.814  -3.127  0.00  0.00    -0.246 OA
ENDBRANCH  45  46
ENDBRANCH  33  45
ENDBRANCH  31  33
ENDBRANCH  28  29
BRANCH  28  49
ATOM     49  CB  TYR A   4     -21.757   5.648   0.562  0.00  0.00    +0.055 C 
BRANCH  49  50
ATOM     50  CG  TYR A   4     -20.419   5.973   1.171  0.00  0.00    -0.020 A 
ATOM     51  CD2 TYR A   4     -20.333   6.771   2.314  0.00  0.00    -0.001 A 
ATOM     52  CE2 TYR A   4     -19.103   7.130   2.848  0.00  0.00    +0.036 A 
ATOM     53  CZ  TYR A   4     -17.937   6.688   2.237  0.00  0.00    +0.134 A 
ATOM     54  CE1 TYR A   4     -17.994   5.892   1.103  0.00  0.00    +0.036 A 
ATOM     55  CD1 TYR A   4     -19.232   5.536   0.577  0.00  0.00    -0.001 A 
BRANCH  53  56
ATOM     56  OH  TYR A   4     -16.716   7.034   2.765  0.00  0.00    -0.506 OA
ATOM     57  HH  TYR A   4     -15.995   6.640   2.213  0.00  0.00    +0.292 HD
ENDBRANCH  53  56
ENDBRANCH  49  50
ENDBRANCH  28  49
ENDBRANCH  25  28
ENDBRANCH   1  24
BRANCH   1  58
ATOM     58  CB  ARG A   3     -26.250   6.889  -2.852  0.00  0.00    +0.033 C 
BRANCH  58  59
ATOM     59  CG  ARG A   3     -25.164   6.816  -3.836  0.00  0.00    +0.045 C 
BRANCH  59  60
ATOM     60  CD  ARG A   3     -25.492   7.311  -5.217  0.00  0.00    +0.174 C 
BRANCH  60  61
ATOM     61  NE  ARG A   3     -25.376   6.243  -6.183  0.00  0.00    -0.265 N 
ATOM     62  HE  ARG A   3     -25.508   5.275  -5.826  0.00  0.00    +0.259 HD
ATOM     63  CZ  ARG A   3     -25.119   6.370  -7.476  0.00  0.00    +0.342 C 
ATOM     64  NH2 ARG A   3     -24.910   7.532  -8.016  0.00  0.00    -0.292 N 
ATOM     65 HH21 ARG A   3     -24.942   8.391  -7.430  0.00  0.00    +0.255 HD
ATOM     66 HH22 ARG A   3     -24.710   7.604  -9.034  0.00  0.00    +0.255 HD
ATOM     67  NH1 ARG A   3     -25.085   5.302  -8.232  0.00  0.00    -0.292 N 
ATOM     68 HH11 ARG A   3     -25.259   4.365  -7.816  0.00  0.00    +0.255 HD
ATOM     69 HH12 ARG A   3     -24.884   5.391  -9.249  0.00  0.00    +0.255 HD
ENDBRANCH  60  61
ENDBRANCH  59  60
ENDBRANCH  58  59
ENDBRANCH   1  58
TORSDOF 27
REMARK  Name = ../refined-set-2016/3c2o/3c2o_pocket.pdb
REMARK  172 active torsions:
REMARK  status: ('A' for Active; 'I' for Inactive)
REMARK    1  A    between atoms: _1  and  _3
REMARK    2  A    between atoms: _3  and  _4
REMARK    3  A    between atoms: _7  and  _9
REMARK    4  A    between atoms: _9  and  _10
REMARK    5  A    between atoms: _12  and  _14
REMARK    6  A    between atoms: _14  and  _15
REMARK    7  A    between atoms: _14  and  _17
REMARK    8  A    between atoms: _17  and  _18
REMARK    9  A    between atoms: _21  and  _23
REMARK   10  A    between atoms: _23  and  _24
REMARK   11  A    between atoms: _23  and  _26
REMARK   12  A    between atoms: _26  and  _27
REMARK   13  A    between atoms: _27  and  _28
REMARK   14  A    between atoms: _28  and  _29
REMARK   15  A    between atoms: _38  and  _40
REMARK   16  A    between atoms: _40  and  _41
REMARK   17  A    between atoms: _40  and  _43
REMARK   18  A    between atoms: _43  and  _44
REMARK   19  A    between atoms: _44  and  _45
REMARK   20  A    between atoms: _45  and  _46
REMARK   21  A    between atoms: _46  and  _47
REMARK   22  A    between atoms: _51  and  _53
REMARK   23  A    between atoms: _53  and  _54
REMARK   24  A    between atoms: _53  and  _56
REMARK   25  A    between atoms: _56  and  _57
REMARK   26  A    between atoms: _60  and  _62
REMARK   27  A    between atoms: _62  and  _63
REMARK   28  A    between atoms: _62  and  _65
REMARK   29  A    between atoms: _65  and  _66
REMARK   30  A    between atoms: _66  and  _67
REMARK   31  A    between atoms: _67  and  _68
REMARK   32  A    between atoms: _77  and  _79
REMARK   33  A    between atoms: _79  and  _80
REMARK   34  A    between atoms: _79  and  _82
REMARK   35  A    between atoms: _82  and  _83
REMARK   36  A    between atoms: _83  and  _84
REMARK   37  A    between atoms: _84  and  _85
REMARK   38  A    between atoms: _85  and  _86
REMARK   39  A    between atoms: _90  and  _92
REMARK   40  A    between atoms: _92  and  _93
REMARK   41  A    between atoms: _92  and  _95
REMARK   42  A    between atoms: _95  and  _96
REMARK   43  A    between atoms: _99  and  _101
REMARK   44  A    between atoms: _101  and  _102
REMARK   45  A    between atoms: _101  and  _104
REMARK   46  A    between atoms: _104  and  _105
REMARK   47  A    between atoms: _110  and  _112
REMARK   48  A    between atoms: _112  and  _113
REMARK   49  A    between atoms: _112  and  _115
REMARK   50  A    between atoms: _115  and  _116
REMARK   51  A    between atoms: _116  and  _117
REMARK   52  A    between atoms: _117  and  _118
REMARK   53  A    between atoms: _127  and  _129
REMARK   54  A    between atoms: _129  and  _130
REMARK   55  A    between atoms: _129  and  _132
REMARK   56  A    between atoms: _132  and  _133
REMARK   57  A    between atoms: _138  and  _139
REMARK   58  A    between atoms: _141  and  _143
REMARK   59  A    between atoms: _143  and  _144
REMARK   60  A    between atoms: _143  and  _146
REMARK   61  A    between atoms: _146  and  _147
REMARK   62  A    between atoms: _150  and  _152
REMARK   63  A    between atoms: _152  and  _153
REMARK   64  A    between atoms: _152  and  _155
REMARK   65  A    between atoms: _155  and  _156
REMARK   66  A    between atoms: _159  and  _161
REMARK   67  A    between atoms: _161  and  _162
REMARK   68  A    between atoms: _161  and  _164
REMARK   69  A    between atoms: _164  and  _165
REMARK   70  A    between atoms: _165  and  _166
REMARK   71  A    between atoms: _168  and  _170
REMARK   72  A    between atoms: _170  and  _171
REMARK   73  A    between atoms: _170  and  _173
REMARK   74  A    between atoms: _173  and  _174
REMARK   75  A    between atoms: _174  and  _175
REMARK   76  A    between atoms: _177  and  _179
REMARK   77  A    between atoms: _179  and  _180
REMARK   78  A    between atoms: _179  and  _182
REMARK   79  A    between atoms: _182  and  _183
REMARK   80  A    between atoms: _183  and  _184
REMARK   81  A    between atoms: _184  and  _185
REMARK   82  A    between atoms: _185  and  _186
REMARK   83  A    between atoms: _190  and  _192
REMARK   84  A    between atoms: _192  and  _193
REMARK   85  A    between atoms: _192  and  _195
REMARK   86  A    between atoms: _195  and  _196
REMARK   87  A    between atoms: _196  and  _197
REMARK   88  A    between atoms: _200  and  _202
REMARK   89  A    between atoms: _202  and  _203
REMARK   90  A    between atoms: _202  and  _205
REMARK   91  A    between atoms: _205  and  _206
REMARK   92  A    between atoms: _206  and  _207
REMARK   93  A    between atoms: _210  and  _212
REMARK   94  A    between atoms: _212  and  _213
REMARK   95  A    between atoms: _212  and  _215
REMARK   96  A    between atoms: _215  and  _216
REMARK   97  A    between atoms: _216  and  _217
REMARK   98  A    between atoms: _219  and  _221
REMARK   99  A    between atoms: _224  and  _225
REMARK  100  A    between atoms: _228  and  _230
REMARK  101  A    between atoms: _230  and  _231
REMARK  102  A    between atoms: _230  and  _233
REMARK  103  A    between atoms: _233  and  _234
REMARK  104  A    between atoms: _234  and  _235
REMARK  105  A    between atoms: _238  and  _240
REMARK  106  A    between atoms: _240  and  _241
REMARK  107  A    between atoms: _240  and  _243
REMARK  108  A    between atoms: _245  and  _247
REMARK  109  A    between atoms: _247  and  _248
REMARK  110  A    between atoms: _247  and  _250
REMARK  111  A    between atoms: _250  and  _251
REMARK  112  A    between atoms: _253  and  _255
REMARK  113  A    between atoms: _255  and  _256
REMARK  114  A    between atoms: _258  and  _260
REMARK  115  A    between atoms: _260  and  _261
REMARK  116  A    between atoms: _260  and  _263
REMARK  117  A    between atoms: _263  and  _264
REMARK  118  A    between atoms: _267  and  _269
REMARK  119  A    between atoms: _269  and  _270
REMARK  120  A    between atoms: _269  and  _272
REMARK  121  A    between atoms: _272  and  _273
REMARK  122  A    between atoms: _278  and  _279
REMARK  123  A    between atoms: _281  and  _283
REMARK  124  A    between atoms: _283  and  _284
REMARK  125  A    between atoms: _283  and  _286
REMARK  126  A    between atoms: _286  and  _287
REMARK  127  A    between atoms: _289  and  _291
REMARK  128  A    between atoms: _291  and  _292
REMARK  129  A    between atoms: _291  and  _294
REMARK  130  A    between atoms: _294  and  _295
REMARK  131  A    between atoms: _298  and  _300
REMARK  132  A    between atoms: _300  and  _301
REMARK  133  A    between atoms: _300  and  _303
REMARK  134  A    between atoms: _303  and  _304
REMARK  135  A    between atoms: _306  and  _308
REMARK  136  A    between atoms: _308  and  _309
REMARK  137  A    between atoms: _308  and  _311
REMARK  138  A    between atoms: _311  and  _312
REMARK  139  A    between atoms: _317  and  _319
REMARK  140  A    between atoms: _319  and  _320
REMARK  141  A    between atoms: _319  and  _322
REMARK  142  A    between atoms: _322  and  _323
REMARK  143  A    between atoms: _326  and  _328
REMARK  144  A    between atoms: _328  and  _329
REMARK  145  A    between atoms: _328  and  _331
REMARK  146  A    between atoms: _331  and  _332
REMARK  147  A    between atoms: _332  and  _333
REMARK  148  A    between atoms: _336  and  _338
REMARK  149  A    between atoms: _338  and  _339
REMARK  150  A    between atoms: _338  and  _341
REMARK  151  A    between atoms: _341  and  _342
REMARK  152  A    between atoms: _342  and  _343
REMARK  153  A    between atoms: _343  and  _344
REMARK  154  A    between atoms: _353  and  _355
REMARK  155  A    between atoms: _355  and  _356
REMARK  156  A    between atoms: _355  and  _358
REMARK  157  A    between atoms: _358  and  _359
REMARK  158  A    between atoms: _362  and  _364
REMARK  159  A    between atoms: _364  and  _365
REMARK  160  A    between atoms: _364  and  _367
REMARK  161  A    between atoms: _367  and  _368
REMARK  162  A    between atoms: _373  and  _375
REMARK  163  A    between atoms: _375  and  _376
REMARK  164  A    between atoms: _375  and  _378
REMARK  165  A    between atoms: _378  and  _379
REMARK  166  A    between atoms: _379  and  _380
REMARK  167  A    between atoms: _380  and  _381
REMARK  168  A    between atoms: _381  and  _382
REMARK  169  A    between atoms: _386  and  _388
REMARK  170  A    between atoms: _388  and  _389
REMARK  171  A    between atoms: _388  and  _391
REMARK  172  A    between atoms: _391  and  _392
REMARK                            x       y       z     vdW  Elec       q    Type
REMARK                         _______ _______ _______ _____ _____    ______ ____
ROOT
ATOM      1  CA  MET A   1     -27.979   2.632  -4.291  0.00  0.00    +0.134 C 
ENDROOT
BRANCH   1   2
ATOM      2  N   MET A   1     -26.751   2.491  -3.526  0.00  0.00    -0.239 NA
ATOM      3  H   MET A   1     -26.729   2.844  -2.548  0.00  0.00    +0.142 HD
ENDBRANCH   1   2
BRANCH   1   4
ATOM      4  C   MET A   1     -27.714   2.879  -5.772  0.00  0.00    +0.224 C 
ATOM      5  O   MET A   1     -26.892   3.720  -6.132  0.00  0.00    -0.287 OA
ENDBRANCH   1   4
BRANCH   1   6
ATOM      6  CB  MET A   1     -28.806   3.779  -3.719  0.00  0.00    +0.037 C 
BRANCH   6   7
ATOM      7  CG  MET A   1     -30.148   3.990  -4.404  0.00  0.00    +0.059 C 
BRANCH   7   8
ATOM      8  SD  MET A   1     -31.066   5.318  -3.606  0.00  0.00    -0.139 S 
ATOM      9  CE  MET A   1     -29.939   6.675  -3.918  0.00  0.00    +0.069 C 
ENDBRANCH   7   8
ENDBRANCH   6   7
ENDBRANCH   1   6
TORSDOF 5
REMARK  Name = ../refined-set-2016/3c2o/3c2o_pocket.pdb
REMARK  172 active torsions:
REMARK  status: ('A' for Active; 'I' for Inactive)
REMARK    1  A    between atoms: _1  and  _3
REMARK    2  A    between atoms: _3  and  _4
REMARK    3  A    between atoms: _7  and  _9
REMARK    4  A    between atoms: _9  and  _10
REMARK    5  A    between atoms: _12  and  _14
REMARK    6  A    between atoms: _14  and  _15
REMARK    7  A    between atoms: _14  and  _17
REMARK    8  A    between atoms: _17  and  _18
REMARK    9  A    between atoms: _21  and  _23
REMARK   10  A    between atoms: _23  and  _24
REMARK   11  A    between atoms: _23  and  _26
REMARK   12  A    between atoms: _26  and  _27
REMARK   13  A    between atoms: _27  and  _28
REMARK   14  A    between atoms: _28  and  _29
REMARK   15  A    between atoms: _38  and  _40
REMARK   16  A    between atoms: _40  and  _41
REMARK   17  A    between atoms: _40  and  _43
REMARK   18  A    between atoms: _43  and  _44
REMARK   19  A    between atoms: _44  and  _45
REMARK   20  A    between atoms: _45  and  _46
REMARK   21  A    between atoms: _46  and  _47
REMARK   22  A    between atoms: _51  and  _53
REMARK   23  A    between atoms: _53  and  _54
REMARK   24  A    between atoms: _53  and  _56
REMARK   25  A    between atoms: _56  and  _57
REMARK   26  A    between atoms: _60  and  _62
REMARK   27  A    between atoms: _62  and  _63
REMARK   28  A    between atoms: _62  and  _65
REMARK   29  A    between atoms: _65  and  _66
REMARK   30  A    between atoms: _66  and  _67
REMARK   31  A    between atoms: _67  and  _68
REMARK   32  A    between atoms: _77  and  _79
REMARK   33  A    between atoms: _79  and  _80
REMARK   34  A    between atoms: _79  and  _82
REMARK   35  A    between atoms: _82  and  _83
REMARK   36  A    between atoms: _83  and  _84
REMARK   37  A    between atoms: _84  and  _85
REMARK   38  A    between atoms: _85  and  _86
REMARK   39  A    between atoms: _90  and  _92
REMARK   40  A    between atoms: _92  and  _93
REMARK   41  A    between atoms: _92  and  _95
REMARK   42  A    between atoms: _95  and  _96
REMARK   43  A    between atoms: _99  and  _101
REMARK   44  A    between atoms: _101  and  _102
REMARK   45  A    between atoms: _101  and  _104
REMARK   46  A    between atoms: _104  and  _105
REMARK   47  A    between atoms: _110  and  _112
REMARK   48  A    between atoms: _112  and  _113
REMARK   49  A    between atoms: _112  and  _115
REMARK   50  A    between atoms: _115  and  _116
REMARK   51  A    between atoms: _116  and  _117
REMARK   52  A    between atoms: _117  and  _118
REMARK   53  A    between atoms: _127  and  _129
REMARK   54  A    between atoms: _129  and  _130
REMARK   55  A    between atoms: _129  and  _132
REMARK   56  A    between atoms: _132  and  _133
REMARK   57  A    between atoms: _138  and  _139
REMARK   58  A    between atoms: _141  and  _143
REMARK   59  A    between atoms: _143  and  _144
REMARK   60  A    between atoms: _143  and  _146
REMARK   61  A    between atoms: _146  and  _147
REMARK   62  A    between atoms: _150  and  _152
REMARK   63  A    between atoms: _152  and  _153
REMARK   64  A    between atoms: _152  and  _155
REMARK   65  A    between atoms: _155  and  _156
REMARK   66  A    between atoms: _159  and  _161
REMARK   67  A    between atoms: _161  and  _162
REMARK   68  A    between atoms: _161  and  _164
REMARK   69  A    between atoms: _164  and  _165
REMARK   70  A    between atoms: _165  and  _166
REMARK   71  A    between atoms: _168  and  _170
REMARK   72  A    between atoms: _170  and  _171
REMARK   73  A    between atoms: _170  and  _173
REMARK   74  A    between atoms: _173  and  _174
REMARK   75  A    between atoms: _174  and  _175
REMARK   76  A    between atoms: _177  and  _179
REMARK   77  A    between atoms: _179  and  _180
REMARK   78  A    between atoms: _179  and  _182
REMARK   79  A    between atoms: _182  and  _183
REMARK   80  A    between atoms: _183  and  _184
REMARK   81  A    between atoms: _184  and  _185
REMARK   82  A    between atoms: _185  and  _186
REMARK   83  A    between atoms: _190  and  _192
REMARK   84  A    between atoms: _192  and  _193
REMARK   85  A    between atoms: _192  and  _195
REMARK   86  A    between atoms: _195  and  _196
REMARK   87  A    between atoms: _196  and  _197
REMARK   88  A    between atoms: _200  and  _202
REMARK   89  A    between atoms: _202  and  _203
REMARK   90  A    between atoms: _202  and  _205
REMARK   91  A    between atoms: _205  and  _206
REMARK   92  A    between atoms: _206  and  _207
REMARK   93  A    between atoms: _210  and  _212
REMARK   94  A    between atoms: _212  and  _213
REMARK   95  A    between atoms: _212  and  _215
REMARK   96  A    between atoms: _215  and  _216
REMARK   97  A    between atoms: _216  and  _217
REMARK   98  A    between atoms: _219  and  _221
REMARK   99  A    between atoms: _224  and  _225
REMARK  100  A    between atoms: _228  and  _230
REMARK  101  A    between atoms: _230  and  _231
REMARK  102  A    between atoms: _230  and  _233
REMARK  103  A    between atoms: _233  and  _234
REMARK  104  A    between atoms: _234  and  _235
REMARK  105  A    between atoms: _238  and  _240
REMARK  106  A    between atoms: _240  and  _241
REMARK  107  A    between atoms: _240  and  _243
REMARK  108  A    between atoms: _245  and  _247
REMARK  109  A    between atoms: _247  and  _248
REMARK  110  A    between atoms: _247  and  _250
REMARK  111  A    between atoms: _250  and  _251
REMARK  112  A    between atoms: _253  and  _255
REMARK  113  A    between atoms: _255  and  _256
REMARK  114  A    between atoms: _258  and  _260
REMARK  115  A    between atoms: _260  and  _261
REMARK  116  A    between atoms: _260  and  _263
REMARK  117  A    between atoms: _263  and  _264
REMARK  118  A    between atoms: _267  and  _269
REMARK  119  A    between atoms: _269  and  _270
REMARK  120  A    between atoms: _269  and  _272
REMARK  121  A    between atoms: _272  and  _273
REMARK  122  A    between atoms: _278  and  _279
REMARK  123  A    between atoms: _281  and  _283
REMARK  124  A    between atoms: _283  and  _284
REMARK  125  A    between atoms: _283  and  _286
REMARK  126  A    between atoms: _286  and  _287
REMARK  127  A    between atoms: _289  and  _291
REMARK  128  A    between atoms: _291  and  _292
REMARK  129  A    between atoms: _291  and  _294
REMARK  130  A    between atoms: _294  and  _295
REMARK  131  A    between atoms: _298  and  _300
REMARK  132  A    between atoms: _300  and  _301
REMARK  133  A    between atoms: _300  and  _303
REMARK  134  A    between atoms: _303  and  _304
REMARK  135  A    between atoms: _306  and  _308
REMARK  136  A    between atoms: _308  and  _309
REMARK  137  A    between atoms: _308  and  _311
REMARK  138  A    between atoms: _311  and  _312
REMARK  139  A    between atoms: _317  and  _319
REMARK  140  A    between atoms: _319  and  _320
REMARK  141  A    between atoms: _319  and  _322
REMARK  142  A    between atoms: _322  and  _323
REMARK  143  A    between atoms: _326  and  _328
REMARK  144  A    between atoms: _328  and  _329
REMARK  145  A    between atoms: _328  and  _331
REMARK  146  A    between atoms: _331  and  _332
REMARK  147  A    between atoms: _332  and  _333
REMARK  148  A    between atoms: _336  and  _338
REMARK  149  A    between atoms: _338  and  _339
REMARK  150  A    between atoms: _338  and  _341
REMARK  151  A    between atoms: _341  and  _342
REMARK  152  A    between atoms: _342  and  _343
REMARK  153  A    between atoms: _343  and  _344
REMARK  154  A    between atoms: _353  and  _355
REMARK  155  A    between atoms: _355  and  _356
REMARK  156  A    between atoms: _355  and  _358
REMARK  157  A    between atoms: _358  and  _359
REMARK  158  A    between atoms: _362  and  _364
REMARK  159  A    between atoms: _364  and  _365
REMARK  160  A    between atoms: _364  and  _367
REMARK  161  A    between atoms: _367  and  _368
REMARK  162  A    between atoms: _373  and  _375
REMARK  163  A    between atoms: _375  and  _376
REMARK  164  A    between atoms: _375  and  _378
REMARK  165  A    between atoms: _378  and  _379
REMARK  166  A    between atoms: _379  and  _380
REMARK  167  A    between atoms: _380  and  _381
REMARK  168  A    between atoms: _381  and  _382
REMARK  169  A    between atoms: _386  and  _388
REMARK  170  A    between atoms: _388  and  _389
REMARK  171  A    between atoms: _388  and  _391
REMARK  172  A    between atoms: _391  and  _392
REMARK                            x       y       z     vdW  Elec       q    Type
REMARK                         _______ _______ _______ _____ _____    ______ ____
ROOT
ATOM      1  CA  MET A   1     -28.963   5.639  -9.779  0.00  0.00    +0.134 C 
ENDROOT
BRANCH   1   2
ATOM      2  N   MET A   1     -28.332   4.412  -9.310  0.00  0.00    -0.239 NA
ATOM      3  H   MET A   1     -27.376   4.169  -9.638  0.00  0.00    +0.142 HD
ENDBRANCH   1   2
BRANCH   1   4
ATOM      4  C   MET A   1     -28.949   5.635 -11.299  0.00  0.00    +0.224 C 
ATOM      5  O   MET A   1     -27.916   5.874 -11.922  0.00  0.00    -0.287 OA
ENDBRANCH   1   4
BRANCH   1   6
ATOM      6  CB  MET A   1     -28.241   6.877  -9.236  0.00  0.00    +0.037 C 
BRANCH   6   7
ATOM      7  CG  MET A   1     -28.576   7.183  -7.784  0.00  0.00    +0.059 C 
BRANCH   7   8
ATOM      8  SD  MET A   1     -27.943   8.776  -7.225  0.00  0.00    -0.139 S 
ATOM      9  CE  MET A   1     -29.316   9.857  -7.622  0.00  0.00    +0.069 C 
ENDBRANCH   7   8
ENDBRANCH   6   7
ENDBRANCH   1   6
TORSDOF 5
REMARK  Name = ../refined-set-2016/3c2o/3c2o_pocket.pdb
REMARK  172 active torsions:
REMARK  status: ('A' for Active; 'I' for Inactive)
REMARK    1  A    between atoms: _1  and  _3
REMARK    2  A    between atoms: _3  and  _4
REMARK    3  A    between atoms: _7  and  _9
REMARK    4  A    between atoms: _9  and  _10
REMARK    5  A    between atoms: _12  and  _14
REMARK    6  A    between atoms: _14  and  _15
REMARK    7  A    between atoms: _14  and  _17
REMARK    8  A    between atoms: _17  and  _18
REMARK    9  A    between atoms: _21  and  _23
REMARK   10  A    between atoms: _23  and  _24
REMARK   11  A    between atoms: _23  and  _26
REMARK   12  A    between atoms: _26  and  _27
REMARK   13  A    between atoms: _27  and  _28
REMARK   14  A    between atoms: _28  and  _29
REMARK   15  A    between atoms: _38  and  _40
REMARK   16  A    between atoms: _40  and  _41
REMARK   17  A    between atoms: _40  and  _43
REMARK   18  A    between atoms: _43  and  _44
REMARK   19  A    between atoms: _44  and  _45
REMARK   20  A    between atoms: _45  and  _46
REMARK   21  A    between atoms: _46  and  _47
REMARK   22  A    between atoms: _51  and  _53
REMARK   23  A    between atoms: _53  and  _54
REMARK   24  A    between atoms: _53  and  _56
REMARK   25  A    between atoms: _56  and  _57
REMARK   26  A    between atoms: _60  and  _62
REMARK   27  A    between atoms: _62  and  _63
REMARK   28  A    between atoms: _62  and  _65
REMARK   29  A    between atoms: _65  and  _66
REMARK   30  A    between atoms: _66  and  _67
REMARK   31  A    between atoms: _67  and  _68
REMARK   32  A    between atoms: _77  and  _79
REMARK   33  A    between atoms: _79  and  _80
REMARK   34  A    between atoms: _79  and  _82
REMARK   35  A    between atoms: _82  and  _83
REMARK   36  A    between atoms: _83  and  _84
REMARK   37  A    between atoms: _84  and  _85
REMARK   38  A    between atoms: _85  and  _86
REMARK   39  A    between atoms: _90  and  _92
REMARK   40  A    between atoms: _92  and  _93
REMARK   41  A    between atoms: _92  and  _95
REMARK   42  A    between atoms: _95  and  _96
REMARK   43  A    between atoms: _99  and  _101
REMARK   44  A    between atoms: _101  and  _102
REMARK   45  A    between atoms: _101  and  _104
REMARK   46  A    between atoms: _104  and  _105
REMARK   47  A    between atoms: _110  and  _112
REMARK   48  A    between atoms: _112  and  _113
REMARK   49  A    between atoms: _112  and  _115
REMARK   50  A    between atoms: _115  and  _116
REMARK   51  A    between atoms: _116  and  _117
REMARK   52  A    between atoms: _117  and  _118
REMARK   53  A    between atoms: _127  and  _129
REMARK   54  A    between atoms: _129  and  _130
REMARK   55  A    between atoms: _129  and  _132
REMARK   56  A    between atoms: _132  and  _133
REMARK   57  A    between atoms: _138  and  _139
REMARK   58  A    between atoms: _141  and  _143
REMARK   59  A    between atoms: _143  and  _144
REMARK   60  A    between atoms: _143  and  _146
REMARK   61  A    between atoms: _146  and  _147
REMARK   62  A    between atoms: _150  and  _152
REMARK   63  A    between atoms: _152  and  _153
REMARK   64  A    between atoms: _152  and  _155
REMARK   65  A    between atoms: _155  and  _156
REMARK   66  A    between atoms: _159  and  _161
REMARK   67  A    between atoms: _161  and  _162
REMARK   68  A    between atoms: _161  and  _164
REMARK   69  A    between atoms: _164  and  _165
REMARK   70  A    between atoms: _165  and  _166
REMARK   71  A    between atoms: _168  and  _170
REMARK   72  A    between atoms: _170  and  _171
REMARK   73  A    between atoms: _170  and  _173
REMARK   74  A    between atoms: _173  and  _174
REMARK   75  A    between atoms: _174  and  _175
REMARK   76  A    between atoms: _177  and  _179
REMARK   77  A    between atoms: _179  and  _180
REMARK   78  A    between atoms: _179  and  _182
REMARK   79  A    between atoms: _182  and  _183
REMARK   80  A    between atoms: _183  and  _184
REMARK   81  A    between atoms: _184  and  _185
REMARK   82  A    between atoms: _185  and  _186
REMARK   83  A    between atoms: _190  and  _192
REMARK   84  A    between atoms: _192  and  _193
REMARK   85  A    between atoms: _192  and  _195
REMARK   86  A    between atoms: _195  and  _196
REMARK   87  A    between atoms: _196  and  _197
REMARK   88  A    between atoms: _200  and  _202
REMARK   89  A    between atoms: _202  and  _203
REMARK   90  A    between atoms: _202  and  _205
REMARK   91  A    between atoms: _205  and  _206
REMARK   92  A    between atoms: _206  and  _207
REMARK   93  A    between atoms: _210  and  _212
REMARK   94  A    between atoms: _212  and  _213
REMARK   95  A    between atoms: _212  and  _215
REMARK   96  A    between atoms: _215  and  _216
REMARK   97  A    between atoms: _216  and  _217
REMARK   98  A    between atoms: _219  and  _221
REMARK   99  A    between atoms: _224  and  _225
REMARK  100  A    between atoms: _228  and  _230
REMARK  101  A    between atoms: _230  and  _231
REMARK  102  A    between atoms: _230  and  _233
REMARK  103  A    between atoms: _233  and  _234
REMARK  104  A    between atoms: _234  and  _235
REMARK  105  A    between atoms: _238  and  _240
REMARK  106  A    between atoms: _240  and  _241
REMARK  107  A    between atoms: _240  and  _243
REMARK  108  A    between atoms: _245  and  _247
REMARK  109  A    between atoms: _247  and  _248
REMARK  110  A    between atoms: _247  and  _250
REMARK  111  A    between atoms: _250  and  _251
REMARK  112  A    between atoms: _253  and  _255
REMARK  113  A    between atoms: _255  and  _256
REMARK  114  A    between atoms: _258  and  _260
REMARK  115  A    between atoms: _260  and  _261
REMARK  116  A    between atoms: _260  and  _263
REMARK  117  A    between atoms: _263  and  _264
REMARK  118  A    between atoms: _267  and  _269
REMARK  119  A    between atoms: _269  and  _270
REMARK  120  A    between atoms: _269  and  _272
REMARK  121  A    between atoms: _272  and  _273
REMARK  122  A    between atoms: _278  and  _279
REMARK  123  A    between atoms: _281  and  _283
REMARK  124  A    between atoms: _283  and  _284
REMARK  125  A    between atoms: _283  and  _286
REMARK  126  A    between atoms: _286  and  _287
REMARK  127  A    between atoms: _289  and  _291
REMARK  128  A    between atoms: _291  and  _292
REMARK  129  A    between atoms: _291  and  _294
REMARK  130  A    between atoms: _294  and  _295
REMARK  131  A    between atoms: _298  and  _300
REMARK  132  A    between atoms: _300  and  _301
REMARK  133  A    between atoms: _300  and  _303
REMARK  134  A    between atoms: _303  and  _304
REMARK  135  A    between atoms: _306  and  _308
REMARK  136  A    between atoms: _308  and  _309
REMARK  137  A    between atoms: _308  and  _311
REMARK  138  A    between atoms: _311  and  _312
REMARK  139  A    between atoms: _317  and  _319
REMARK  140  A    between atoms: _319  and  _320
REMARK  141  A    between atoms: _319  and  _322
REMARK  142  A    between atoms: _322  and  _323
REMARK  143  A    between atoms: _326  and  _328
REMARK  144  A    between atoms: _328  and  _329
REMARK  145  A    between atoms: _328  and  _331
REMARK  146  A    between atoms: _331  and  _332
REMARK  147  A    between atoms: _332  and  _333
REMARK  148  A    between atoms: _336  and  _338
REMARK  149  A    between atoms: _338  and  _339
REMARK  150  A    between atoms: _338  and  _341
REMARK  151  A    between atoms: _341  and  _342
REMARK  152  A    between atoms: _342  and  _343
REMARK  153  A    between atoms: _343  and  _344
REMARK  154  A    between atoms: _353  and  _355
REMARK  155  A    between atoms: _355  and  _356
REMARK  156  A    between atoms: _355  and  _358
REMARK  157  A    between atoms: _358  and  _359
REMARK  158  A    between atoms: _362  and  _364
REMARK  159  A    between atoms: _364  and  _365
REMARK  160  A    between atoms: _364  and  _367
REMARK  161  A    between atoms: _367  and  _368
REMARK  162  A    between atoms: _373  and  _375
REMARK  163  A    between atoms: _375  and  _376
REMARK  164  A    between atoms: _375  and  _378
REMARK  165  A    between atoms: _378  and  _379
REMARK  166  A    between atoms: _379  and  _380
REMARK  167  A    between atoms: _380  and  _381
REMARK  168  A    between atoms: _381  and  _382
REMARK  169  A    between atoms: _386  and  _388
REMARK  170  A    between atoms: _388  and  _389
REMARK  171  A    between atoms: _388  and  _391
REMARK  172  A    between atoms: _391  and  _392
REMARK                            x       y       z     vdW  Elec       q    Type
REMARK                         _______ _______ _______ _____ _____    ______ ____
ROOT
ATOM      1  CG  LYS A   1     -29.062   9.894 -14.813  0.00  0.00    -0.000 C 
ENDROOT
BRANCH   1   2
ATOM      2  CB  LYS A   1     -29.281   8.991 -16.013  0.00  0.00    +0.025 C 
BRANCH   2   3
ATOM      3  CA  LYS A   1     -30.498   8.066 -15.918  0.00  0.00    +0.133 C 
BRANCH   3   4
ATOM      4  N   LYS A   1     -30.175   6.860 -15.161  0.00  0.00    -0.239 NA
ATOM      5  H   LYS A   1     -29.511   6.176 -15.576  0.00  0.00    +0.142 HD
ENDBRANCH   3   4
BRANCH   3   6
ATOM      6  C   LYS A   1     -30.948   7.695 -17.329  0.00  0.00    +0.224 C 
ATOM      7  O   LYS A   1     -31.091   6.516 -17.658  0.00  0.00    -0.287 OA
ENDBRANCH   3   6
ENDBRANCH   2   3
ENDBRANCH   1   2
BRANCH   1   8
ATOM      8  CD  LYS A   1     -28.710   9.117 -13.561  0.00  0.00    -0.024 C 
BRANCH   8   9
ATOM      9  CE  LYS A   1     -28.415  10.066 -12.409  0.00  0.00    -0.086 C 
BRANCH   9  10
ATOM     10  NZ  LYS A   1     -28.054   9.348 -11.156  0.00  0.00    +0.380 N 
ATOM     11  HZ1 LYS A   1     -27.863  10.040 -10.404  0.00  0.00    -0.089 HD
ATOM     12  HZ2 LYS A   1     -28.843   8.733 -10.871  0.00  0.00    -0.089 HD
ATOM     13  HZ3 LYS A   1     -27.205   8.771 -11.321  0.00  0.00    -0.089 HD
ENDBRANCH   9  10
ENDBRANCH   8   9
ENDBRANCH   1   8
TORSDOF 7
REMARK  Name = ../refined-set-2016/3c2o/3c2o_pocket.pdb
REMARK  172 active torsions:
REMARK  status: ('A' for Active; 'I' for Inactive)
REMARK    1  A    between atoms: _1  and  _3
REMARK    2  A    between atoms: _3  and  _4
REMARK    3  A    between atoms: _7  and  _9
REMARK    4  A    between atoms: _9  and  _10
REMARK    5  A    between atoms: _12  and  _14
REMARK    6  A    between atoms: _14  and  _15
REMARK    7  A    between atoms: _14  and  _17
REMARK    8  A    between atoms: _17  and  _18
REMARK    9  A    between atoms: _21  and  _23
REMARK   10  A    between atoms: _23  and  _24
REMARK   11  A    between atoms: _23  and  _26
REMARK   12  A    between atoms: _26  and  _27
REMARK   13  A    between atoms: _27  and  _28
REMARK   14  A    between atoms: _28  and  _29
REMARK   15  A    between atoms: _38  and  _40
REMARK   16  A    between atoms: _40  and  _41
REMARK   17  A    between atoms: _40  and  _43
REMARK   18  A    between atoms: _43  and  _44
REMARK   19  A    between atoms: _44  and  _45
REMARK   20  A    between atoms: _45  and  _46
REMARK   21  A    between atoms: _46  and  _47
REMARK   22  A    between atoms: _51  and  _53
REMARK   23  A    between atoms: _53  and  _54
REMARK   24  A    between atoms: _53  and  _56
REMARK   25  A    between atoms: _56  and  _57
REMARK   26  A    between atoms: _60  and  _62
REMARK   27  A    between atoms: _62  and  _63
REMARK   28  A    between atoms: _62  and  _65
REMARK   29  A    between atoms: _65  and  _66
REMARK   30  A    between atoms: _66  and  _67
REMARK   31  A    between atoms: _67  and  _68
REMARK   32  A    between atoms: _77  and  _79
REMARK   33  A    between atoms: _79  and  _80
REMARK   34  A    between atoms: _79  and  _82
REMARK   35  A    between atoms: _82  and  _83
REMARK   36  A    between atoms: _83  and  _84
REMARK   37  A    between atoms: _84  and  _85
REMARK   38  A    between atoms: _85  and  _86
REMARK   39  A    between atoms: _90  and  _92
REMARK   40  A    between atoms: _92  and  _93
REMARK   41  A    between atoms: _92  and  _95
REMARK   42  A    between atoms: _95  and  _96
REMARK   43  A    between atoms: _99  and  _101
REMARK   44  A    between atoms: _101  and  _102
REMARK   45  A    between atoms: _101  and  _104
REMARK   46  A    between atoms: _104  and  _105
REMARK   47  A    between atoms: _110  and  _112
REMARK   48  A    between atoms: _112  and  _113
REMARK   49  A    between atoms: _112  and  _115
REMARK   50  A    between atoms: _115  and  _116
REMARK   51  A    between atoms: _116  and  _117
REMARK   52  A    between atoms: _117  and  _118
REMARK   53  A    between atoms: _127  and  _129
REMARK   54  A    between atoms: _129  and  _130
REMARK   55  A    between atoms: _129  and  _132
REMARK   56  A    between atoms: _132  and  _133
REMARK   57  A    between atoms: _138  and  _139
REMARK   58  A    between atoms: _141  and  _143
REMARK   59  A    between atoms: _143  and  _144
REMARK   60  A    between atoms: _143  and  _146
REMARK   61  A    between atoms: _146  and  _147
REMARK   62  A    between atoms: _150  and  _152
REMARK   63  A    between atoms: _152  and  _153
REMARK   64  A    between atoms: _152  and  _155
REMARK   65  A    between atoms: _155  and  _156
REMARK   66  A    between atoms: _159  and  _161
REMARK   67  A    between atoms: _161  and  _162
REMARK   68  A    between atoms: _161  and  _164
REMARK   69  A    between atoms: _164  and  _165
REMARK   70  A    between atoms: _165  and  _166
REMARK   71  A    between atoms: _168  and  _170
REMARK   72  A    between atoms: _170  and  _171
REMARK   73  A    between atoms: _170  and  _173
REMARK   74  A    between atoms: _173  and  _174
REMARK   75  A    between atoms: _174  and  _175
REMARK   76  A    between atoms: _177  and  _179
REMARK   77  A    between atoms: _179  and  _180
REMARK   78  A    between atoms: _179  and  _182
REMARK   79  A    between atoms: _182  and  _183
REMARK   80  A    between atoms: _183  and  _184
REMARK   81  A    between atoms: _184  and  _185
REMARK   82  A    between atoms: _185  and  _186
REMARK   83  A    between atoms: _190  and  _192
REMARK   84  A    between atoms: _192  and  _193
REMARK   85  A    between atoms: _192  and  _195
REMARK   86  A    between atoms: _195  and  _196
REMARK   87  A    between atoms: _196  and  _197
REMARK   88  A    between atoms: _200  and  _202
REMARK   89  A    between atoms: _202  and  _203
REMARK   90  A    between atoms: _202  and  _205
REMARK   91  A    between atoms: _205  and  _206
REMARK   92  A    between atoms: _206  and  _207
REMARK   93  A    between atoms: _210  and  _212
REMARK   94  A    between atoms: _212  and  _213
REMARK   95  A    between atoms: _212  and  _215
REMARK   96  A    between atoms: _215  and  _216
REMARK   97  A    between atoms: _216  and  _217
REMARK   98  A    between atoms: _219  and  _221
REMARK   99  A    between atoms: _224  and  _225
REMARK  100  A    between atoms: _228  and  _230
REMARK  101  A    between atoms: _230  and  _231
REMARK  102  A    between atoms: _230  and  _233
REMARK  103  A    between atoms: _233  and  _234
REMARK  104  A    between atoms: _234  and  _235
REMARK  105  A    between atoms: _238  and  _240
REMARK  106  A    between atoms: _240  and  _241
REMARK  107  A    between atoms: _240  and  _243
REMARK  108  A    between atoms: _245  and  _247
REMARK  109  A    between atoms: _247  and  _248
REMARK  110  A    between atoms: _247  and  _250
REMARK  111  A    between atoms: _250  and  _251
REMARK  112  A    between atoms: _253  and  _255
REMARK  113  A    between atoms: _255  and  _256
REMARK  114  A    between atoms: _258  and  _260
REMARK  115  A    between atoms: _260  and  _261
REMARK  116  A    between atoms: _260  and  _263
REMARK  117  A    between atoms: _263  and  _264
REMARK  118  A    between atoms: _267  and  _269
REMARK  119  A    between atoms: _269  and  _270
REMARK  120  A    between atoms: _269  and  _272
REMARK  121  A    between atoms: _272  and  _273
REMARK  122  A    between atoms: _278  and  _279
REMARK  123  A    between atoms: _281  and  _283
REMARK  124  A    between atoms: _283  and  _284
REMARK  125  A    between atoms: _283  and  _286
REMARK  126  A    between atoms: _286  and  _287
REMARK  127  A    between atoms: _289  and  _291
REMARK  128  A    between atoms: _291  and  _292
REMARK  129  A    between atoms: _291  and  _294
REMARK  130  A    between atoms: _294  and  _295
REMARK  131  A    between atoms: _298  and  _300
REMARK  132  A    between atoms: _300  and  _301
REMARK  133  A    between atoms: _300  and  _303
REMARK  134  A    between atoms: _303  and  _304
REMARK  135  A    between atoms: _306  and  _308
REMARK  136  A    between atoms: _308  and  _309
REMARK  137  A    between atoms: _308  and  _311
REMARK  138  A    between atoms: _311  and  _312
REMARK  139  A    between atoms: _317  and  _319
REMARK  140  A    between atoms: _319  and  _320
REMARK  141  A    between atoms: _319  and  _322
REMARK  142  A    between atoms: _322  and  _323
REMARK  143  A    between atoms: _326  and  _328
REMARK  144  A    between atoms: _328  and  _329
REMARK  145  A    between atoms: _328  and  _331
REMARK  146  A    between atoms: _331  and  _332
REMARK  147  A    between atoms: _332  and  _333
REMARK  148  A    between atoms: _336  and  _338
REMARK  149  A    between atoms: _338  and  _339
REMARK  150  A    between atoms: _338  and  _341
REMARK  151  A    between atoms: _341  and  _342
REMARK  152  A    between atoms: _342  and  _343
REMARK  153  A    between atoms: _343  and  _344
REMARK  154  A    between atoms: _353  and  _355
REMARK  155  A    between atoms: _355  and  _356
REMARK  156  A    between atoms: _355  and  _358
REMARK  157  A    between atoms: _358  and  _359
REMARK  158  A    between atoms: _362  and  _364
REMARK  159  A    between atoms: _364  and  _365
REMARK  160  A    between atoms: _364  and  _367
REMARK  161  A    between atoms: _367  and  _368
REMARK  162  A    between atoms: _373  and  _375
REMARK  163  A    between atoms: _375  and  _376
REMARK  164  A    between atoms: _375  and  _378
REMARK  165  A    between atoms: _378  and  _379
REMARK  166  A    between atoms: _379  and  _380
REMARK  167  A    between atoms: _380  and  _381
REMARK  168  A    between atoms: _381  and  _382
REMARK  169  A    between atoms: _386  and  _388
REMARK  170  A    between atoms: _388  and  _389
REMARK  171  A    between atoms: _388  and  _391
REMARK  172  A    between atoms: _391  and  _392
REMARK                            x       y       z     vdW  Elec       q    Type
REMARK                         _______ _______ _______ _____ _____    ______ ____
ROOT
ATOM      1  CA  GLU A   1     -33.309   5.282  -8.100  0.00  0.00    +0.134 C 
ENDROOT
BRANCH   1   2
ATOM      2  N   GLU A   1     -32.735   3.958  -7.904  0.00  0.00    -0.239 NA
ATOM      3  H   GLU A   1     -31.738   3.796  -8.153  0.00  0.00    +0.142 HD
ENDBRANCH   1   2
BRANCH   1   4
ATOM      4  C   GLU A   1     -33.237   5.654  -9.572  0.00  0.00    +0.224 C 
ATOM      5  O   GLU A   1     -32.200   5.472 -10.209  0.00  0.00    -0.287 OA
ENDBRANCH   1   4
BRANCH   1   6
ATOM      6  CB  GLU A   1     -32.557   6.324  -7.264  0.00  0.00    +0.037 C 
BRANCH   6   7
ATOM      7  CG  GLU A   1     -32.798   7.762  -7.718  0.00  0.00    +0.116 C 
BRANCH   7   8
ATOM      8  CD  GLU A   1     -32.544   8.779  -6.625  0.00  0.00    +0.365 C 
ATOM      9  OE2 GLU A   1     -31.580   8.605  -5.849  0.00  0.00    -0.246 OA
ATOM     10  OE1 GLU A   1     -33.307   9.762  -6.552  0.00  0.00    -0.246 OA
ENDBRANCH   7   8
ENDBRANCH   6   7
ENDBRANCH   1   6
TORSDOF 5
REMARK  Name = ../refined-set-2016/3c2o/3c2o_pocket.pdb
REMARK  172 active torsions:
REMARK  status: ('A' for Active; 'I' for Inactive)
REMARK    1  A    between atoms: _1  and  _3
REMARK    2  A    between atoms: _3  and  _4
REMARK    3  A    between atoms: _7  and  _9
REMARK    4  A    between atoms: _9  and  _10
REMARK    5  A    between atoms: _12  and  _14
REMARK    6  A    between atoms: _14  and  _15
REMARK    7  A    between atoms: _14  and  _17
REMARK    8  A    between atoms: _17  and  _18
REMARK    9  A    between atoms: _21  and  _23
REMARK   10  A    between atoms: _23  and  _24
REMARK   11  A    between atoms: _23  and  _26
REMARK   12  A    between atoms: _26  and  _27
REMARK   13  A    between atoms: _27  and  _28
REMARK   14  A    between atoms: _28  and  _29
REMARK   15  A    between atoms: _38  and  _40
REMARK   16  A    between atoms: _40  and  _41
REMARK   17  A    between atoms: _40  and  _43
REMARK   18  A    between atoms: _43  and  _44
REMARK   19  A    between atoms: _44  and  _45
REMARK   20  A    between atoms: _45  and  _46
REMARK   21  A    between atoms: _46  and  _47
REMARK   22  A    between atoms: _51  and  _53
REMARK   23  A    between atoms: _53  and  _54
REMARK   24  A    between atoms: _53  and  _56
REMARK   25  A    between atoms: _56  and  _57
REMARK   26  A    between atoms: _60  and  _62
REMARK   27  A    between atoms: _62  and  _63
REMARK   28  A    between atoms: _62  and  _65
REMARK   29  A    between atoms: _65  and  _66
REMARK   30  A    between atoms: _66  and  _67
REMARK   31  A    between atoms: _67  and  _68
REMARK   32  A    between atoms: _77  and  _79
REMARK   33  A    between atoms: _79  and  _80
REMARK   34  A    between atoms: _79  and  _82
REMARK   35  A    between atoms: _82  and  _83
REMARK   36  A    between atoms: _83  and  _84
REMARK   37  A    between atoms: _84  and  _85
REMARK   38  A    between atoms: _85  and  _86
REMARK   39  A    between atoms: _90  and  _92
REMARK   40  A    between atoms: _92  and  _93
REMARK   41  A    between atoms: _92  and  _95
REMARK   42  A    between atoms: _95  and  _96
REMARK   43  A    between atoms: _99  and  _101
REMARK   44  A    between atoms: _101  and  _102
REMARK   45  A    between atoms: _101  and  _104
REMARK   46  A    between atoms: _104  and  _105
REMARK   47  A    between atoms: _110  and  _112
REMARK   48  A    between atoms: _112  and  _113
REMARK   49  A    between atoms: _112  and  _115
REMARK   50  A    between atoms: _115  and  _116
REMARK   51  A    between atoms: _116  and  _117
REMARK   52  A    between atoms: _117  and  _118
REMARK   53  A    between atoms: _127  and  _129
REMARK   54  A    between atoms: _129  and  _130
REMARK   55  A    between atoms: _129  and  _132
REMARK   56  A    between atoms: _132  and  _133
REMARK   57  A    between atoms: _138  and  _139
REMARK   58  A    between atoms: _141  and  _143
REMARK   59  A    between atoms: _143  and  _144
REMARK   60  A    between atoms: _143  and  _146
REMARK   61  A    between atoms: _146  and  _147
REMARK   62  A    between atoms: _150  and  _152
REMARK   63  A    between atoms: _152  and  _153
REMARK   64  A    between atoms: _152  and  _155
REMARK   65  A    between atoms: _155  and  _156
REMARK   66  A    between atoms: _159  and  _161
REMARK   67  A    between atoms: _161  and  _162
REMARK   68  A    between atoms: _161  and  _164
REMARK   69  A    between atoms: _164  and  _165
REMARK   70  A    between atoms: _165  and  _166
REMARK   71  A    between atoms: _168  and  _170
REMARK   72  A    between atoms: _170  and  _171
REMARK   73  A    between atoms: _170  and  _173
REMARK   74  A    between atoms: _173  and  _174
REMARK   75  A    between atoms: _174  and  _175
REMARK   76  A    between atoms: _177  and  _179
REMARK   77  A    between atoms: _179  and  _180
REMARK   78  A    between atoms: _179  and  _182
REMARK   79  A    between atoms: _182  and  _183
REMARK   80  A    between atoms: _183  and  _184
REMARK   81  A    between atoms: _184  and  _185
REMARK   82  A    between atoms: _185  and  _186
REMARK   83  A    between atoms: _190  and  _192
REMARK   84  A    between atoms: _192  and  _193
REMARK   85  A    between atoms: _192  and  _195
REMARK   86  A    between atoms: _195  and  _196
REMARK   87  A    between atoms: _196  and  _197
REMARK   88  A    between atoms: _200  and  _202
REMARK   89  A    between atoms: _202  and  _203
REMARK   90  A    between atoms: _202  and  _205
REMARK   91  A    between atoms: _205  and  _206
REMARK   92  A    between atoms: _206  and  _207
REMARK   93  A    between atoms: _210  and  _212
REMARK   94  A    between atoms: _212  and  _213
REMARK   95  A    between atoms: _212  and  _215
REMARK   96  A    between atoms: _215  and  _216
REMARK   97  A    between atoms: _216  and  _217
REMARK   98  A    between atoms: _219  and  _221
REMARK   99  A    between atoms: _224  and  _225
REMARK  100  A    between atoms: _228  and  _230
REMARK  101  A    between atoms: _230  and  _231
REMARK  102  A    between atoms: _230  and  _233
REMARK  103  A    between atoms: _233  and  _234
REMARK  104  A    between atoms: _234  and  _235
REMARK  105  A    between atoms: _238  and  _240
REMARK  106  A    between atoms: _240  and  _241
REMARK  107  A    between atoms: _240  and  _243
REMARK  108  A    between atoms: _245  and  _247
REMARK  109  A    between atoms: _247  and  _248
REMARK  110  A    between atoms: _247  and  _250
REMARK  111  A    between atoms: _250  and  _251
REMARK  112  A    between atoms: _253  and  _255
REMARK  113  A    between atoms: _255  and  _256
REMARK  114  A    between atoms: _258  and  _260
REMARK  115  A    between atoms: _260  and  _261
REMARK  116  A    between atoms: _260  and  _263
REMARK  117  A    between atoms: _263  and  _264
REMARK  118  A    between atoms: _267  and  _269
REMARK  119  A    between atoms: _269  and  _270
REMARK  120  A    between atoms: _269  and  _272
REMARK  121  A    between atoms: _272  and  _273
REMARK  122  A    between atoms: _278  and  _279
REMARK  123  A    between atoms: _281  and  _283
REMARK  124  A    between atoms: _283  and  _284
REMARK  125  A    between atoms: _283  and  _286
REMARK  126  A    between atoms: _286  and  _287
REMARK  127  A    between atoms: _289  and  _291
REMARK  128  A    between atoms: _291  and  _292
REMARK  129  A    between atoms: _291  and  _294
REMARK  130  A    between atoms: _294  and  _295
REMARK  131  A    between atoms: _298  and  _300
REMARK  132  A    between atoms: _300  and  _301
REMARK  133  A    between atoms: _300  and  _303
REMARK  134  A    between atoms: _303  and  _304
REMARK  135  A    between atoms: _306  and  _308
REMARK  136  A    between atoms: _308  and  _309
REMARK  137  A    between atoms: _308  and  _311
REMARK  138  A    between atoms: _311  and  _312
REMARK  139  A    between atoms: _317  and  _319
REMARK  140  A    between atoms: _319  and  _320
REMARK  141  A    between atoms: _319  and  _322
REMARK  142  A    between atoms: _322  and  _323
REMARK  143  A    between atoms: _326  and  _328
REMARK  144  A    between atoms: _328  and  _329
REMARK  145  A    between atoms: _328  and  _331
REMARK  146  A    between atoms: _331  and  _332
REMARK  147  A    between atoms: _332  and  _333
REMARK  148  A    between atoms: _336  and  _338
REMARK  149  A    between atoms: _338  and  _339
REMARK  150  A    between atoms: _338  and  _341
REMARK  151  A    between atoms: _341  and  _342
REMARK  152  A    between atoms: _342  and  _343
REMARK  153  A    between atoms: _343  and  _344
REMARK  154  A    between atoms: _353  and  _355
REMARK  155  A    between atoms: _355  and  _356
REMARK  156  A    between atoms: _355  and  _358
REMARK  157  A    between atoms: _358  and  _359
REMARK  158  A    between atoms: _362  and  _364
REMARK  159  A    between atoms: _364  and  _365
REMARK  160  A    between atoms: _364  and  _367
REMARK  161  A    between atoms: _367  and  _368
REMARK  162  A    between atoms: _373  and  _375
REMARK  163  A    between atoms: _375  and  _376
REMARK  164  A    between atoms: _375  and  _378
REMARK  165  A    between atoms: _378  and  _379
REMARK  166  A    between atoms: _379  and  _380
REMARK  167  A    between atoms: _380  and  _381
REMARK  168  A    between atoms: _381  and  _382
REMARK  169  A    between atoms: _386  and  _388
REMARK  170  A    between atoms: _388  and  _389
REMARK  171  A    between atoms: _388  and  _391
REMARK  172  A    between atoms: _391  and  _392
REMARK                            x       y       z     vdW  Elec       q    Type
REMARK                         _______ _______ _______ _____ _____    ______ ____
ROOT
ATOM      1  CA  GLU A   1     -34.162  10.093 -12.713  0.00  0.00    +0.134 C 
ENDROOT
BRANCH   1   2
ATOM      2  N   GLU A   1     -33.911   8.720 -12.474  0.00  0.00    -0.239 NA
ATOM      3  H   GLU A   1     -33.085   8.261 -12.909  0.00  0.00    +0.142 HD
ENDBRANCH   1   2
BRANCH   1   4
ATOM      4  C   GLU A   1     -35.106  10.281 -13.869  0.00  0.00    +0.224 C 
ATOM      5  O   GLU A   1     -34.840   9.849 -14.965  0.00  0.00    -0.287 OA
ENDBRANCH   1   4
BRANCH   1   6
ATOM      6  CB  GLU A   1     -32.866  10.791 -12.971  0.00  0.00    +0.037 C 
BRANCH   6   7
ATOM      7  CG  GLU A   1     -32.992  11.923 -13.858  0.00  0.00    +0.116 C 
BRANCH   7   8
ATOM      8  CD  GLU A   1     -31.682  12.534 -14.108  0.00  0.00    +0.365 C 
ATOM      9  OE2 GLU A   1     -31.168  13.194 -13.208  0.00  0.00    -0.246 OA
ATOM     10  OE1 GLU A   1     -31.147  12.343 -15.205  0.00  0.00    -0.246 OA
ENDBRANCH   7   8
ENDBRANCH   6   7
ENDBRANCH   1   6
TORSDOF 5
REMARK  Name = ../refined-set-2016/3c2o/3c2o_pocket.pdb
REMARK  172 active torsions:
REMARK  status: ('A' for Active; 'I' for Inactive)
REMARK    1  A    between atoms: _1  and  _3
REMARK    2  A    between atoms: _3  and  _4
REMARK    3  A    between atoms: _7  and  _9
REMARK    4  A    between atoms: _9  and  _10
REMARK    5  A    between atoms: _12  and  _14
REMARK    6  A    between atoms: _14  and  _15
REMARK    7  A    between atoms: _14  and  _17
REMARK    8  A    between atoms: _17  and  _18
REMARK    9  A    between atoms: _21  and  _23
REMARK   10  A    between atoms: _23  and  _24
REMARK   11  A    between atoms: _23  and  _26
REMARK   12  A    between atoms: _26  and  _27
REMARK   13  A    between atoms: _27  and  _28
REMARK   14  A    between atoms: _28  and  _29
REMARK   15  A    between atoms: _38  and  _40
REMARK   16  A    between atoms: _40  and  _41
REMARK   17  A    between atoms: _40  and  _43
REMARK   18  A    between atoms: _43  and  _44
REMARK   19  A    between atoms: _44  and  _45
REMARK   20  A    between atoms: _45  and  _46
REMARK   21  A    between atoms: _46  and  _47
REMARK   22  A    between atoms: _51  and  _53
REMARK   23  A    between atoms: _53  and  _54
REMARK   24  A    between atoms: _53  and  _56
REMARK   25  A    between atoms: _56  and  _57
REMARK   26  A    between atoms: _60  and  _62
REMARK   27  A    between atoms: _62  and  _63
REMARK   28  A    between atoms: _62  and  _65
REMARK   29  A    between atoms: _65  and  _66
REMARK   30  A    between atoms: _66  and  _67
REMARK   31  A    between atoms: _67  and  _68
REMARK   32  A    between atoms: _77  and  _79
REMARK   33  A    between atoms: _79  and  _80
REMARK   34  A    between atoms: _79  and  _82
REMARK   35  A    between atoms: _82  and  _83
REMARK   36  A    between atoms: _83  and  _84
REMARK   37  A    between atoms: _84  and  _85
REMARK   38  A    between atoms: _85  and  _86
REMARK   39  A    between atoms: _90  and  _92
REMARK   40  A    between atoms: _92  and  _93
REMARK   41  A    between atoms: _92  and  _95
REMARK   42  A    between atoms: _95  and  _96
REMARK   43  A    between atoms: _99  and  _101
REMARK   44  A    between atoms: _101  and  _102
REMARK   45  A    between atoms: _101  and  _104
REMARK   46  A    between atoms: _104  and  _105
REMARK   47  A    between atoms: _110  and  _112
REMARK   48  A    between atoms: _112  and  _113
REMARK   49  A    between atoms: _112  and  _115
REMARK   50  A    between atoms: _115  and  _116
REMARK   51  A    between atoms: _116  and  _117
REMARK   52  A    between atoms: _117  and  _118
REMARK   53  A    between atoms: _127  and  _129
REMARK   54  A    between atoms: _129  and  _130
REMARK   55  A    between atoms: _129  and  _132
REMARK   56  A    between atoms: _132  and  _133
REMARK   57  A    between atoms: _138  and  _139
REMARK   58  A    between atoms: _141  and  _143
REMARK   59  A    between atoms: _143  and  _144
REMARK   60  A    between atoms: _143  and  _146
REMARK   61  A    between atoms: _146  and  _147
REMARK   62  A    between atoms: _150  and  _152
REMARK   63  A    between atoms: _152  and  _153
REMARK   64  A    between atoms: _152  and  _155
REMARK   65  A    between atoms: _155  and  _156
REMARK   66  A    between atoms: _159  and  _161
REMARK   67  A    between atoms: _161  and  _162
REMARK   68  A    between atoms: _161  and  _164
REMARK   69  A    between atoms: _164  and  _165
REMARK   70  A    between atoms: _165  and  _166
REMARK   71  A    between atoms: _168  and  _170
REMARK   72  A    between atoms: _170  and  _171
REMARK   73  A    between atoms: _170  and  _173
REMARK   74  A    between atoms: _173  and  _174
REMARK   75  A    between atoms: _174  and  _175
REMARK   76  A    between atoms: _177  and  _179
REMARK   77  A    between atoms: _179  and  _180
REMARK   78  A    between atoms: _179  and  _182
REMARK   79  A    between atoms: _182  and  _183
REMARK   80  A    between atoms: _183  and  _184
REMARK   81  A    between atoms: _184  and  _185
REMARK   82  A    between atoms: _185  and  _186
REMARK   83  A    between atoms: _190  and  _192
REMARK   84  A    between atoms: _192  and  _193
REMARK   85  A    between atoms: _192  and  _195
REMARK   86  A    between atoms: _195  and  _196
REMARK   87  A    between atoms: _196  and  _197
REMARK   88  A    between atoms: _200  and  _202
REMARK   89  A    between atoms: _202  and  _203
REMARK   90  A    between atoms: _202  and  _205
REMARK   91  A    between atoms: _205  and  _206
REMARK   92  A    between atoms: _206  and  _207
REMARK   93  A    between atoms: _210  and  _212
REMARK   94  A    between atoms: _212  and  _213
REMARK   95  A    between atoms: _212  and  _215
REMARK   96  A    between atoms: _215  and  _216
REMARK   97  A    between atoms: _216  and  _217
REMARK   98  A    between atoms: _219  and  _221
REMARK   99  A    between atoms: _224  and  _225
REMARK  100  A    between atoms: _228  and  _230
REMARK  101  A    between atoms: _230  and  _231
REMARK  102  A    between atoms: _230  and  _233
REMARK  103  A    between atoms: _233  and  _234
REMARK  104  A    between atoms: _234  and  _235
REMARK  105  A    between atoms: _238  and  _240
REMARK  106  A    between atoms: _240  and  _241
REMARK  107  A    between atoms: _240  and  _243
REMARK  108  A    between atoms: _245  and  _247
REMARK  109  A    between atoms: _247  and  _248
REMARK  110  A    between atoms: _247  and  _250
REMARK  111  A    between atoms: _250  and  _251
REMARK  112  A    between atoms: _253  and  _255
REMARK  113  A    between atoms: _255  and  _256
REMARK  114  A    between atoms: _258  and  _260
REMARK  115  A    between atoms: _260  and  _261
REMARK  116  A    between atoms: _260  and  _263
REMARK  117  A    between atoms: _263  and  _264
REMARK  118  A    between atoms: _267  and  _269
REMARK  119  A    between atoms: _269  and  _270
REMARK  120  A    between atoms: _269  and  _272
REMARK  121  A    between atoms: _272  and  _273
REMARK  122  A    between atoms: _278  and  _279
REMARK  123  A    between atoms: _281  and  _283
REMARK  124  A    between atoms: _283  and  _284
REMARK  125  A    between atoms: _283  and  _286
REMARK  126  A    between atoms: _286  and  _287
REMARK  127  A    between atoms: _289  and  _291
REMARK  128  A    between atoms: _291  and  _292
REMARK  129  A    between atoms: _291  and  _294
REMARK  130  A    between atoms: _294  and  _295
REMARK  131  A    between atoms: _298  and  _300
REMARK  132  A    between atoms: _300  and  _301
REMARK  133  A    between atoms: _300  and  _303
REMARK  134  A    between atoms: _303  and  _304
REMARK  135  A    between atoms: _306  and  _308
REMARK  136  A    between atoms: _308  and  _309
REMARK  137  A    between atoms: _308  and  _311
REMARK  138  A    between atoms: _311  and  _312
REMARK  139  A    between atoms: _317  and  _319
REMARK  140  A    between atoms: _319  and  _320
REMARK  141  A    between atoms: _319  and  _322
REMARK  142  A    between atoms: _322  and  _323
REMARK  143  A    between atoms: _326  and  _328
REMARK  144  A    between atoms: _328  and  _329
REMARK  145  A    between atoms: _328  and  _331
REMARK  146  A    between atoms: _331  and  _332
REMARK  147  A    between atoms: _332  and  _333
REMARK  148  A    between atoms: _336  and  _338
REMARK  149  A    between atoms: _338  and  _339
REMARK  150  A    between atoms: _338  and  _341
REMARK  151  A    between atoms: _341  and  _342
REMARK  152  A    between atoms: _342  and  _343
REMARK  153  A    between atoms: _343  and  _344
REMARK  154  A    between atoms: _353  and  _355
REMARK  155  A    between atoms: _355  and  _356
REMARK  156  A    between atoms: _355  and  _358
REMARK  157  A    between atoms: _358  and  _359
REMARK  158  A    between atoms: _362  and  _364
REMARK  159  A    between atoms: _364  and  _365
REMARK  160  A    between atoms: _364  and  _367
REMARK  161  A    between atoms: _367  and  _368
REMARK  162  A    between atoms: _373  and  _375
REMARK  163  A    between atoms: _375  and  _376
REMARK  164  A    between atoms: _375  and  _378
REMARK  165  A    between atoms: _378  and  _379
REMARK  166  A    between atoms: _379  and  _380
REMARK  167  A    between atoms: _380  and  _381
REMARK  168  A    between atoms: _381  and  _382
REMARK  169  A    between atoms: _386  and  _388
REMARK  170  A    between atoms: _388  and  _389
REMARK  171  A    between atoms: _388  and  _391
REMARK  172  A    between atoms: _391  and  _392
REMARK                            x       y       z     vdW  Elec       q    Type
REMARK                         _______ _______ _______ _____ _____    ______ ____
ROOT
ATOM      1  CA  MET A   1     -35.556  11.889  -9.078  0.00  0.00    +0.134 C 
ENDROOT
BRANCH   1   2
ATOM      2  N   MET A   1     -36.099  10.542  -9.099  0.00  0.00    -0.239 NA
ATOM      3  H   MET A   1     -35.683   9.832  -9.735  0.00  0.00    +0.142 HD
ENDBRANCH   1   2
BRANCH   1   4
ATOM      4  C   MET A   1     -36.226  12.671 -10.194  0.00  0.00    +0.224 C 
ATOM      5  O   MET A   1     -36.265  12.224 -11.342  0.00  0.00    -0.287 OA
ENDBRANCH   1   4
BRANCH   1   6
ATOM      6  CB  MET A   1     -34.042  11.875  -9.293  0.00  0.00    +0.037 C 
BRANCH   6   7
ATOM      7  CG  MET A   1     -33.426  13.265  -9.265  0.00  0.00    +0.059 C 
BRANCH   7   8
ATOM      8  SD  MET A   1     -31.629  13.280  -9.274  0.00  0.00    -0.139 S 
ATOM      9  CE  MET A   1     -31.301  13.571 -10.991  0.00  0.00    +0.069 C 
ENDBRANCH   7   8
ENDBRANCH   6   7
ENDBRANCH   1   6
TORSDOF 5
REMARK  Name = ../refined-set-2016/3c2o/3c2o_pocket.pdb
REMARK  172 active torsions:
REMARK  status: ('A' for Active; 'I' for Inactive)
REMARK    1  A    between atoms: _1  and  _3
REMARK    2  A    between atoms: _3  and  _4
REMARK    3  A    between atoms: _7  and  _9
REMARK    4  A    between atoms: _9  and  _10
REMARK    5  A    between atoms: _12  and  _14
REMARK    6  A    between atoms: _14  and  _15
REMARK    7  A    between atoms: _14  and  _17
REMARK    8  A    between atoms: _17  and  _18
REMARK    9  A    between atoms: _21  and  _23
REMARK   10  A    between atoms: _23  and  _24
REMARK   11  A    between atoms: _23  and  _26
REMARK   12  A    between atoms: _26  and  _27
REMARK   13  A    between atoms: _27  and  _28
REMARK   14  A    between atoms: _28  and  _29
REMARK   15  A    between atoms: _38  and  _40
REMARK   16  A    between atoms: _40  and  _41
REMARK   17  A    between atoms: _40  and  _43
REMARK   18  A    between atoms: _43  and  _44
REMARK   19  A    between atoms: _44  and  _45
REMARK   20  A    between atoms: _45  and  _46
REMARK   21  A    between atoms: _46  and  _47
REMARK   22  A    between atoms: _51  and  _53
REMARK   23  A    between atoms: _53  and  _54
REMARK   24  A    between atoms: _53  and  _56
REMARK   25  A    between atoms: _56  and  _57
REMARK   26  A    between atoms: _60  and  _62
REMARK   27  A    between atoms: _62  and  _63
REMARK   28  A    between atoms: _62  and  _65
REMARK   29  A    between atoms: _65  and  _66
REMARK   30  A    between atoms: _66  and  _67
REMARK   31  A    between atoms: _67  and  _68
REMARK   32  A    between atoms: _77  and  _79
REMARK   33  A    between atoms: _79  and  _80
REMARK   34  A    between atoms: _79  and  _82
REMARK   35  A    between atoms: _82  and  _83
REMARK   36  A    between atoms: _83  and  _84
REMARK   37  A    between atoms: _84  and  _85
REMARK   38  A    between atoms: _85  and  _86
REMARK   39  A    between atoms: _90  and  _92
REMARK   40  A    between atoms: _92  and  _93
REMARK   41  A    between atoms: _92  and  _95
REMARK   42  A    between atoms: _95  and  _96
REMARK   43  A    between atoms: _99  and  _101
REMARK   44  A    between atoms: _101  and  _102
REMARK   45  A    between atoms: _101  and  _104
REMARK   46  A    between atoms: _104  and  _105
REMARK   47  A    between atoms: _110  and  _112
REMARK   48  A    between atoms: _112  and  _113
REMARK   49  A    between atoms: _112  and  _115
REMARK   50  A    between atoms: _115  and  _116
REMARK   51  A    between atoms: _116  and  _117
REMARK   52  A    between atoms: _117  and  _118
REMARK   53  A    between atoms: _127  and  _129
REMARK   54  A    between atoms: _129  and  _130
REMARK   55  A    between atoms: _129  and  _132
REMARK   56  A    between atoms: _132  and  _133
REMARK   57  A    between atoms: _138  and  _139
REMARK   58  A    between atoms: _141  and  _143
REMARK   59  A    between atoms: _143  and  _144
REMARK   60  A    between atoms: _143  and  _146
REMARK   61  A    between atoms: _146  and  _147
REMARK   62  A    between atoms: _150  and  _152
REMARK   63  A    between atoms: _152  and  _153
REMARK   64  A    between atoms: _152  and  _155
REMARK   65  A    between atoms: _155  and  _156
REMARK   66  A    between atoms: _159  and  _161
REMARK   67  A    between atoms: _161  and  _162
REMARK   68  A    between atoms: _161  and  _164
REMARK   69  A    between atoms: _164  and  _165
REMARK   70  A    between atoms: _165  and  _166
REMARK   71  A    between atoms: _168  and  _170
REMARK   72  A    between atoms: _170  and  _171
REMARK   73  A    between atoms: _170  and  _173
REMARK   74  A    between atoms: _173  and  _174
REMARK   75  A    between atoms: _174  and  _175
REMARK   76  A    between atoms: _177  and  _179
REMARK   77  A    between atoms: _179  and  _180
REMARK   78  A    between atoms: _179  and  _182
REMARK   79  A    between atoms: _182  and  _183
REMARK   80  A    between atoms: _183  and  _184
REMARK   81  A    between atoms: _184  and  _185
REMARK   82  A    between atoms: _185  and  _186
REMARK   83  A    between atoms: _190  and  _192
REMARK   84  A    between atoms: _192  and  _193
REMARK   85  A    between atoms: _192  and  _195
REMARK   86  A    between atoms: _195  and  _196
REMARK   87  A    between atoms: _196  and  _197
REMARK   88  A    between atoms: _200  and  _202
REMARK   89  A    between atoms: _202  and  _203
REMARK   90  A    between atoms: _202  and  _205
REMARK   91  A    between atoms: _205  and  _206
REMARK   92  A    between atoms: _206  and  _207
REMARK   93  A    between atoms: _210  and  _212
REMARK   94  A    between atoms: _212  and  _213
REMARK   95  A    between atoms: _212  and  _215
REMARK   96  A    between atoms: _215  and  _216
REMARK   97  A    between atoms: _216  and  _217
REMARK   98  A    between atoms: _219  and  _221
REMARK   99  A    between atoms: _224  and  _225
REMARK  100  A    between atoms: _228  and  _230
REMARK  101  A    between atoms: _230  and  _231
REMARK  102  A    between atoms: _230  and  _233
REMARK  103  A    between atoms: _233  and  _234
REMARK  104  A    between atoms: _234  and  _235
REMARK  105  A    between atoms: _238  and  _240
REMARK  106  A    between atoms: _240  and  _241
REMARK  107  A    between atoms: _240  and  _243
REMARK  108  A    between atoms: _245  and  _247
REMARK  109  A    between atoms: _247  and  _248
REMARK  110  A    between atoms: _247  and  _250
REMARK  111  A    between atoms: _250  and  _251
REMARK  112  A    between atoms: _253  and  _255
REMARK  113  A    between atoms: _255  and  _256
REMARK  114  A    between atoms: _258  and  _260
REMARK  115  A    between atoms: _260  and  _261
REMARK  116  A    between atoms: _260  and  _263
REMARK  117  A    between atoms: _263  and  _264
REMARK  118  A    between atoms: _267  and  _269
REMARK  119  A    between atoms: _269  and  _270
REMARK  120  A    between atoms: _269  and  _272
REMARK  121  A    between atoms: _272  and  _273
REMARK  122  A    between atoms: _278  and  _279
REMARK  123  A    between atoms: _281  and  _283
REMARK  124  A    between atoms: _283  and  _284
REMARK  125  A    between atoms: _283  and  _286
REMARK  126  A    between atoms: _286  and  _287
REMARK  127  A    between atoms: _289  and  _291
REMARK  128  A    between atoms: _291  and  _292
REMARK  129  A    between atoms: _291  and  _294
REMARK  130  A    between atoms: _294  and  _295
REMARK  131  A    between atoms: _298  and  _300
REMARK  132  A    between atoms: _300  and  _301
REMARK  133  A    between atoms: _300  and  _303
REMARK  134  A    between atoms: _303  and  _304
REMARK  135  A    between atoms: _306  and  _308
REMARK  136  A    between atoms: _308  and  _309
REMARK  137  A    between atoms: _308  and  _311
REMARK  138  A    between atoms: _311  and  _312
REMARK  139  A    between atoms: _317  and  _319
REMARK  140  A    between atoms: _319  and  _320
REMARK  141  A    between atoms: _319  and  _322
REMARK  142  A    between atoms: _322  and  _323
REMARK  143  A    between atoms: _326  and  _328
REMARK  144  A    between atoms: _328  and  _329
REMARK  145  A    between atoms: _328  and  _331
REMARK  146  A    between atoms: _331  and  _332
REMARK  147  A    between atoms: _332  and  _333
REMARK  148  A    between atoms: _336  and  _338
REMARK  149  A    between atoms: _338  and  _339
REMARK  150  A    between atoms: _338  and  _341
REMARK  151  A    between atoms: _341  and  _342
REMARK  152  A    between atoms: _342  and  _343
REMARK  153  A    between atoms: _343  and  _344
REMARK  154  A    between atoms: _353  and  _355
REMARK  155  A    between atoms: _355  and  _356
REMARK  156  A    between atoms: _355  and  _358
REMARK  157  A    between atoms: _358  and  _359
REMARK  158  A    between atoms: _362  and  _364
REMARK  159  A    between atoms: _364  and  _365
REMARK  160  A    between atoms: _364  and  _367
REMARK  161  A    between atoms: _367  and  _368
REMARK  162  A    between atoms: _373  and  _375
REMARK  163  A    between atoms: _375  and  _376
REMARK  164  A    between atoms: _375  and  _378
REMARK  165  A    between atoms: _378  and  _379
REMARK  166  A    between atoms: _379  and  _380
REMARK  167  A    between atoms: _380  and  _381
REMARK  168  A    between atoms: _381  and  _382
REMARK  169  A    between atoms: _386  and  _388
REMARK  170  A    between atoms: _388  and  _389
REMARK  171  A    between atoms: _388  and  _391
REMARK  172  A    between atoms: _391  and  _392
REMARK                            x       y       z     vdW  Elec       q    Type
REMARK                         _______ _______ _______ _____ _____    ______ ____
ROOT
ATOM      1  C   UNL     1     -34.468  17.077 -10.904  0.00  0.00    +0.113 C 
ATOM      2  C   UNL     1     -34.227  18.523 -11.322  0.00  0.00    +0.180 C 
ATOM      3  O   UNL     1     -33.289  18.818 -12.063  0.00  0.00    -0.221 OA
ATOM      4  C   UNL     1     -33.953  16.923 -12.336  0.00  0.00    +0.153 C 
ENDROOT
BRANCH   4   5
ATOM      5  C   UNL     1     -33.236  15.606 -12.560  0.00  0.00    +0.368 C 
ATOM      6  O   UNL     1     -33.130  14.815 -11.599  0.00  0.00    -0.246 OA
ATOM      7  O   UNL     1     -32.780  15.361 -13.696  0.00  0.00    -0.246 OA
ENDBRANCH   4   5
BRANCH   1   8
ATOM      8  N   UNL     1     -35.411  16.012 -10.583  0.00  0.00    -0.244 NA
ATOM      9  H   UNL     1     -35.200  15.369  -9.793  0.00  0.00    +0.141 HD
ENDBRANCH   1   8
TORSDOF 2
REMARK  Name = ../refined-set-2016/3c2o/3c2o_pocket.pdb
REMARK  172 active torsions:
REMARK  status: ('A' for Active; 'I' for Inactive)
REMARK    1  A    between atoms: _1  and  _3
REMARK    2  A    between atoms: _3  and  _4
REMARK    3  A    between atoms: _7  and  _9
REMARK    4  A    between atoms: _9  and  _10
REMARK    5  A    between atoms: _12  and  _14
REMARK    6  A    between atoms: _14  and  _15
REMARK    7  A    between atoms: _14  and  _17
REMARK    8  A    between atoms: _17  and  _18
REMARK    9  A    between atoms: _21  and  _23
REMARK   10  A    between atoms: _23  and  _24
REMARK   11  A    between atoms: _23  and  _26
REMARK   12  A    between atoms: _26  and  _27
REMARK   13  A    between atoms: _27  and  _28
REMARK   14  A    between atoms: _28  and  _29
REMARK   15  A    between atoms: _38  and  _40
REMARK   16  A    between atoms: _40  and  _41
REMARK   17  A    between atoms: _40  and  _43
REMARK   18  A    between atoms: _43  and  _44
REMARK   19  A    between atoms: _44  and  _45
REMARK   20  A    between atoms: _45  and  _46
REMARK   21  A    between atoms: _46  and  _47
REMARK   22  A    between atoms: _51  and  _53
REMARK   23  A    between atoms: _53  and  _54
REMARK   24  A    between atoms: _53  and  _56
REMARK   25  A    between atoms: _56  and  _57
REMARK   26  A    between atoms: _60  and  _62
REMARK   27  A    between atoms: _62  and  _63
REMARK   28  A    between atoms: _62  and  _65
REMARK   29  A    between atoms: _65  and  _66
REMARK   30  A    between atoms: _66  and  _67
REMARK   31  A    between atoms: _67  and  _68
REMARK   32  A    between atoms: _77  and  _79
REMARK   33  A    between atoms: _79  and  _80
REMARK   34  A    between atoms: _79  and  _82
REMARK   35  A    between atoms: _82  and  _83
REMARK   36  A    between atoms: _83  and  _84
REMARK   37  A    between atoms: _84  and  _85
REMARK   38  A    between atoms: _85  and  _86
REMARK   39  A    between atoms: _90  and  _92
REMARK   40  A    between atoms: _92  and  _93
REMARK   41  A    between atoms: _92  and  _95
REMARK   42  A    between atoms: _95  and  _96
REMARK   43  A    between atoms: _99  and  _101
REMARK   44  A    between atoms: _101  and  _102
REMARK   45  A    between atoms: _101  and  _104
REMARK   46  A    between atoms: _104  and  _105
REMARK   47  A    between atoms: _110  and  _112
REMARK   48  A    between atoms: _112  and  _113
REMARK   49  A    between atoms: _112  and  _115
REMARK   50  A    between atoms: _115  and  _116
REMARK   51  A    between atoms: _116  and  _117
REMARK   52  A    between atoms: _117  and  _118
REMARK   53  A    between atoms: _127  and  _129
REMARK   54  A    between atoms: _129  and  _130
REMARK   55  A    between atoms: _129  and  _132
REMARK   56  A    between atoms: _132  and  _133
REMARK   57  A    between atoms: _138  and  _139
REMARK   58  A    between atoms: _141  and  _143
REMARK   59  A    between atoms: _143  and  _144
REMARK   60  A    between atoms: _143  and  _146
REMARK   61  A    between atoms: _146  and  _147
REMARK   62  A    between atoms: _150  and  _152
REMARK   63  A    between atoms: _152  and  _153
REMARK   64  A    between atoms: _152  and  _155
REMARK   65  A    between atoms: _155  and  _156
REMARK   66  A    between atoms: _159  and  _161
REMARK   67  A    between atoms: _161  and  _162
REMARK   68  A    between atoms: _161  and  _164
REMARK   69  A    between atoms: _164  and  _165
REMARK   70  A    between atoms: _165  and  _166
REMARK   71  A    between atoms: _168  and  _170
REMARK   72  A    between atoms: _170  and  _171
REMARK   73  A    between atoms: _170  and  _173
REMARK   74  A    between atoms: _173  and  _174
REMARK   75  A    between atoms: _174  and  _175
REMARK   76  A    between atoms: _177  and  _179
REMARK   77  A    between atoms: _179  and  _180
REMARK   78  A    between atoms: _179  and  _182
REMARK   79  A    between atoms: _182  and  _183
REMARK   80  A    between atoms: _183  and  _184
REMARK   81  A    between atoms: _184  and  _185
REMARK   82  A    between atoms: _185  and  _186
REMARK   83  A    between atoms: _190  and  _192
REMARK   84  A    between atoms: _192  and  _193
REMARK   85  A    between atoms: _192  and  _195
REMARK   86  A    between atoms: _195  and  _196
REMARK   87  A    between atoms: _196  and  _197
REMARK   88  A    between atoms: _200  and  _202
REMARK   89  A    between atoms: _202  and  _203
REMARK   90  A    between atoms: _202  and  _205
REMARK   91  A    between atoms: _205  and  _206
REMARK   92  A    between atoms: _206  and  _207
REMARK   93  A    between atoms: _210  and  _212
REMARK   94  A    between atoms: _212  and  _213
REMARK   95  A    between atoms: _212  and  _215
REMARK   96  A    between atoms: _215  and  _216
REMARK   97  A    between atoms: _216  and  _217
REMARK   98  A    between atoms: _219  and  _221
REMARK   99  A    between atoms: _224  and  _225
REMARK  100  A    between atoms: _228  and  _230
REMARK  101  A    between atoms: _230  and  _231
REMARK  102  A    between atoms: _230  and  _233
REMARK  103  A    between atoms: _233  and  _234
REMARK  104  A    between atoms: _234  and  _235
REMARK  105  A    between atoms: _238  and  _240
REMARK  106  A    between atoms: _240  and  _241
REMARK  107  A    between atoms: _240  and  _243
REMARK  108  A    between atoms: _245  and  _247
REMARK  109  A    between atoms: _247  and  _248
REMARK  110  A    between atoms: _247  and  _250
REMARK  111  A    between atoms: _250  and  _251
REMARK  112  A    between atoms: _253  and  _255
REMARK  113  A    between atoms: _255  and  _256
REMARK  114  A    between atoms: _258  and  _260
REMARK  115  A    between atoms: _260  and  _261
REMARK  116  A    between atoms: _260  and  _263
REMARK  117  A    between atoms: _263  and  _264
REMARK  118  A    between atoms: _267  and  _269
REMARK  119  A    between atoms: _269  and  _270
REMARK  120  A    between atoms: _269  and  _272
REMARK  121  A    between atoms: _272  and  _273
REMARK  122  A    between atoms: _278  and  _279
REMARK  123  A    between atoms: _281  and  _283
REMARK  124  A    between atoms: _283  and  _284
REMARK  125  A    between atoms: _283  and  _286
REMARK  126  A    between atoms: _286  and  _287
REMARK  127  A    between atoms: _289  and  _291
REMARK  128  A    between atoms: _291  and  _292
REMARK  129  A    between atoms: _291  and  _294
REMARK  130  A    between atoms: _294  and  _295
REMARK  131  A    between atoms: _298  and  _300
REMARK  132  A    between atoms: _300  and  _301
REMARK  133  A    between atoms: _300  and  _303
REMARK  134  A    between atoms: _303  and  _304
REMARK  135  A    between atoms: _306  and  _308
REMARK  136  A    between atoms: _308  and  _309
REMARK  137  A    between atoms: _308  and  _311
REMARK  138  A    between atoms: _311  and  _312
REMARK  139  A    between atoms: _317  and  _319
REMARK  140  A    between atoms: _319  and  _320
REMARK  141  A    between atoms: _319  and  _322
REMARK  142  A    between atoms: _322  and  _323
REMARK  143  A    between atoms: _326  and  _328
REMARK  144  A    between atoms: _328  and  _329
REMARK  145  A    between atoms: _328  and  _331
REMARK  146  A    between atoms: _331  and  _332
REMARK  147  A    between atoms: _332  and  _333
REMARK  148  A    between atoms: _336  and  _338
REMARK  149  A    between atoms: _338  and  _339
REMARK  150  A    between atoms: _338  and  _341
REMARK  151  A    between atoms: _341  and  _342
REMARK  152  A    between atoms: _342  and  _343
REMARK  153  A    between atoms: _343  and  _344
REMARK  154  A    between atoms: _353  and  _355
REMARK  155  A    between atoms: _355  and  _356
REMARK  156  A    between atoms: _355  and  _358
REMARK  157  A    between atoms: _358  and  _359
REMARK  158  A    between atoms: _362  and  _364
REMARK  159  A    between atoms: _364  and  _365
REMARK  160  A    between atoms: _364  and  _367
REMARK  161  A    between atoms: _367  and  _368
REMARK  162  A    between atoms: _373  and  _375
REMARK  163  A    between atoms: _375  and  _376
REMARK  164  A    between atoms: _375  and  _378
REMARK  165  A    between atoms: _378  and  _379
REMARK  166  A    between atoms: _379  and  _380
REMARK  167  A    between atoms: _380  and  _381
REMARK  168  A    between atoms: _381  and  _382
REMARK  169  A    between atoms: _386  and  _388
REMARK  170  A    between atoms: _388  and  _389
REMARK  171  A    between atoms: _388  and  _391
REMARK  172  A    between atoms: _391  and  _392
REMARK                            x       y       z     vdW  Elec       q    Type
REMARK                         _______ _______ _______ _____ _____    ______ ____
ROOT
ATOM      1  CA  CYS A   2     -35.538  16.870  -6.393  0.00  0.00    +0.160 C 
ENDROOT
BRANCH   1   3
ATOM      2  C   GLU A   1     -36.228  14.611  -5.888  0.00  0.00    +0.238 C 
ATOM      3  N   CYS A   2     -35.905  15.819  -5.478  0.00  0.00    -0.297 N 
ATOM      4  H   CYS A   2     -35.915  16.022  -4.458  0.00  0.00    +0.150 HD
ATOM      5  O   GLU A   1     -36.447  14.345  -7.068  0.00  0.00    -0.274 OA
BRANCH   2   6
ATOM      6  CA  GLU A   1     -36.462  13.588  -4.789  0.00  0.00    +0.145 C 
BRANCH   6   7
ATOM      7  N   GLU A   1     -37.580  12.700  -5.046  0.00  0.00    -0.238 NA
ATOM      8  H   GLU A   1     -37.730  12.330  -6.006  0.00  0.00    +0.142 HD
ENDBRANCH   6   7
BRANCH   6   9
ATOM      9  CB  GLU A   1     -35.188  12.760  -4.570  0.00  0.00    +0.038 C 
BRANCH   9  10
ATOM     10  CG  GLU A   1     -33.909  13.412  -5.088  0.00  0.00    +0.116 C 
BRANCH  10  11
ATOM     11  CD  GLU A   1     -32.654  12.652  -4.695  0.00  0.00    +0.365 C 
ATOM     12  OE2 GLU A   1     -31.689  13.305  -4.275  0.00  0.00    -0.246 OA
ATOM     13  OE1 GLU A   1     -32.621  11.410  -4.813  0.00  0.00    -0.246 OA
ENDBRANCH  10  11
ENDBRANCH   9  10
ENDBRANCH   6   9
ENDBRANCH   2   6
ENDBRANCH   1   3
BRANCH   1  14
ATOM     14  C   CYS A   2     -34.115  17.243  -6.132  0.00  0.00    +0.242 C 
ATOM     15  O   CYS A   2     -33.700  17.346  -5.011  0.00  0.00    -0.273 OA
ATOM     16  N   SER A   3     -33.360  17.420  -7.189  0.00  0.00    -0.295 N 
ATOM     17  H   SER A   3     -33.773  17.342  -8.140  0.00  0.00    +0.150 HD
BRANCH  16  18
ATOM     18  CA  SER A   3     -31.969  17.720  -7.036  0.00  0.00    +0.178 C 
BRANCH  18  19
ATOM     19  C   SER A   3     -31.608  19.033  -7.666  0.00  0.00    +0.243 C 
ATOM     20  N   GLY A   4     -30.968  19.866  -6.854  0.00  0.00    -0.296 N 
ATOM     21  H   GLY A   4     -31.076  19.704  -5.832  0.00  0.00    +0.150 HD
ATOM     22  O   SER A   3     -31.713  19.185  -8.848  0.00  0.00    -0.273 OA
BRANCH  20  23
ATOM     23  CA  GLY A   4     -30.134  20.979  -7.256  0.00  0.00    +0.163 C 
BRANCH  23  24
ATOM     24  C   GLY A   4     -30.345  22.157  -6.331  0.00  0.00    +0.229 C 
ATOM     25  O   GLY A   4     -29.527  23.072  -6.226  0.00  0.00    -0.286 OA
ENDBRANCH  23  24
ENDBRANCH  20  23
ENDBRANCH  18  19
BRANCH  18  26
ATOM     26  CB  SER A   3     -31.121  16.620  -7.634  0.00  0.00    +0.166 C 
BRANCH  26  27
ATOM     27  OG  SER A   3     -29.765  16.833  -7.342  0.00  0.00    -0.380 OA
ATOM     28  H   SER A   3     -29.225  16.105  -7.740  0.00  0.00    +0.211 HD
ENDBRANCH  26  27
ENDBRANCH  18  26
ENDBRANCH  16  18
ENDBRANCH   1  14
BRANCH   1  29
ATOM     29  CB  CYS A   2     -36.451  18.084  -6.214  0.00  0.00    +0.098 C 
ATOM     30  SG  CYS A   2     -35.769  19.709  -6.687  0.00  0.00    -0.080 S 
ENDBRANCH   1  29
TORSDOF 14
REMARK  Name = ../refined-set-2016/3c2o/3c2o_pocket.pdb
REMARK  172 active torsions:
REMARK  status: ('A' for Active; 'I' for Inactive)
REMARK    1  A    between atoms: _1  and  _3
REMARK    2  A    between atoms: _3  and  _4
REMARK    3  A    between atoms: _7  and  _9
REMARK    4  A    between atoms: _9  and  _10
REMARK    5  A    between atoms: _12  and  _14
REMARK    6  A    between atoms: _14  and  _15
REMARK    7  A    between atoms: _14  and  _17
REMARK    8  A    between atoms: _17  and  _18
REMARK    9  A    between atoms: _21  and  _23
REMARK   10  A    between atoms: _23  and  _24
REMARK   11  A    between atoms: _23  and  _26
REMARK   12  A    between atoms: _26  and  _27
REMARK   13  A    between atoms: _27  and  _28
REMARK   14  A    between atoms: _28  and  _29
REMARK   15  A    between atoms: _38  and  _40
REMARK   16  A    between atoms: _40  and  _41
REMARK   17  A    between atoms: _40  and  _43
REMARK   18  A    between atoms: _43  and  _44
REMARK   19  A    between atoms: _44  and  _45
REMARK   20  A    between atoms: _45  and  _46
REMARK   21  A    between atoms: _46  and  _47
REMARK   22  A    between atoms: _51  and  _53
REMARK   23  A    between atoms: _53  and  _54
REMARK   24  A    between atoms: _53  and  _56
REMARK   25  A    between atoms: _56  and  _57
REMARK   26  A    between atoms: _60  and  _62
REMARK   27  A    between atoms: _62  and  _63
REMARK   28  A    between atoms: _62  and  _65
REMARK   29  A    between atoms: _65  and  _66
REMARK   30  A    between atoms: _66  and  _67
REMARK   31  A    between atoms: _67  and  _68
REMARK   32  A    between atoms: _77  and  _79
REMARK   33  A    between atoms: _79  and  _80
REMARK   34  A    between atoms: _79  and  _82
REMARK   35  A    between atoms: _82  and  _83
REMARK   36  A    between atoms: _83  and  _84
REMARK   37  A    between atoms: _84  and  _85
REMARK   38  A    between atoms: _85  and  _86
REMARK   39  A    between atoms: _90  and  _92
REMARK   40  A    between atoms: _92  and  _93
REMARK   41  A    between atoms: _92  and  _95
REMARK   42  A    between atoms: _95  and  _96
REMARK   43  A    between atoms: _99  and  _101
REMARK   44  A    between atoms: _101  and  _102
REMARK   45  A    between atoms: _101  and  _104
REMARK   46  A    between atoms: _104  and  _105
REMARK   47  A    between atoms: _110  and  _112
REMARK   48  A    between atoms: _112  and  _113
REMARK   49  A    between atoms: _112  and  _115
REMARK   50  A    between atoms: _115  and  _116
REMARK   51  A    between atoms: _116  and  _117
REMARK   52  A    between atoms: _117  and  _118
REMARK   53  A    between atoms: _127  and  _129
REMARK   54  A    between atoms: _129  and  _130
REMARK   55  A    between atoms: _129  and  _132
REMARK   56  A    between atoms: _132  and  _133
REMARK   57  A    between atoms: _138  and  _139
REMARK   58  A    between atoms: _141  and  _143
REMARK   59  A    between atoms: _143  and  _144
REMARK   60  A    between atoms: _143  and  _146
REMARK   61  A    between atoms: _146  and  _147
REMARK   62  A    between atoms: _150  and  _152
REMARK   63  A    between atoms: _152  and  _153
REMARK   64  A    between atoms: _152  and  _155
REMARK   65  A    between atoms: _155  and  _156
REMARK   66  A    between atoms: _159  and  _161
REMARK   67  A    between atoms: _161  and  _162
REMARK   68  A    between atoms: _161  and  _164
REMARK   69  A    between atoms: _164  and  _165
REMARK   70  A    between atoms: _165  and  _166
REMARK   71  A    between atoms: _168  and  _170
REMARK   72  A    between atoms: _170  and  _171
REMARK   73  A    between atoms: _170  and  _173
REMARK   74  A    between atoms: _173  and  _174
REMARK   75  A    between atoms: _174  and  _175
REMARK   76  A    between atoms: _177  and  _179
REMARK   77  A    between atoms: _179  and  _180
REMARK   78  A    between atoms: _179  and  _182
REMARK   79  A    between atoms: _182  and  _183
REMARK   80  A    between atoms: _183  and  _184
REMARK   81  A    between atoms: _184  and  _185
REMARK   82  A    between atoms: _185  and  _186
REMARK   83  A    between atoms: _190  and  _192
REMARK   84  A    between atoms: _192  and  _193
REMARK   85  A    between atoms: _192  and  _195
REMARK   86  A    between atoms: _195  and  _196
REMARK   87  A    between atoms: _196  and  _197
REMARK   88  A    between atoms: _200  and  _202
REMARK   89  A    between atoms: _202  and  _203
REMARK   90  A    between atoms: _202  and  _205
REMARK   91  A    between atoms: _205  and  _206
REMARK   92  A    between atoms: _206  and  _207
REMARK   93  A    between atoms: _210  and  _212
REMARK   94  A    between atoms: _212  and  _213
REMARK   95  A    between atoms: _212  and  _215
REMARK   96  A    between atoms: _215  and  _216
REMARK   97  A    between atoms: _216  and  _217
REMARK   98  A    between atoms: _219  and  _221
REMARK   99  A    between atoms: _224  and  _225
REMARK  100  A    between atoms: _228  and  _230
REMARK  101  A    between atoms: _230  and  _231
REMARK  102  A    between atoms: _230  and  _233
REMARK  103  A    between atoms: _233  and  _234
REMARK  104  A    between atoms: _234  and  _235
REMARK  105  A    between atoms: _238  and  _240
REMARK  106  A    between atoms: _240  and  _241
REMARK  107  A    between atoms: _240  and  _243
REMARK  108  A    between atoms: _245  and  _247
REMARK  109  A    between atoms: _247  and  _248
REMARK  110  A    between atoms: _247  and  _250
REMARK  111  A    between atoms: _250  and  _251
REMARK  112  A    between atoms: _253  and  _255
REMARK  113  A    between atoms: _255  and  _256
REMARK  114  A    between atoms: _258  and  _260
REMARK  115  A    between atoms: _260  and  _261
REMARK  116  A    between atoms: _260  and  _263
REMARK  117  A    between atoms: _263  and  _264
REMARK  118  A    between atoms: _267  and  _269
REMARK  119  A    between atoms: _269  and  _270
REMARK  120  A    between atoms: _269  and  _272
REMARK  121  A    between atoms: _272  and  _273
REMARK  122  A    between atoms: _278  and  _279
REMARK  123  A    between atoms: _281  and  _283
REMARK  124  A    between atoms: _283  and  _284
REMARK  125  A    between atoms: _283  and  _286
REMARK  126  A    between atoms: _286  and  _287
REMARK  127  A    between atoms: _289  and  _291
REMARK  128  A    between atoms: _291  and  _292
REMARK  129  A    between atoms: _291  and  _294
REMARK  130  A    between atoms: _294  and  _295
REMARK  131  A    between atoms: _298  and  _300
REMARK  132  A    between atoms: _300  and  _301
REMARK  133  A    between atoms: _300  and  _303
REMARK  134  A    between atoms: _303  and  _304
REMARK  135  A    between atoms: _306  and  _308
REMARK  136  A    between atoms: _308  and  _309
REMARK  137  A    between atoms: _308  and  _311
REMARK  138  A    between atoms: _311  and  _312
REMARK  139  A    between atoms: _317  and  _319
REMARK  140  A    between atoms: _319  and  _320
REMARK  141  A    between atoms: _319  and  _322
REMARK  142  A    between atoms: _322  and  _323
REMARK  143  A    between atoms: _326  and  _328
REMARK  144  A    between atoms: _328  and  _329
REMARK  145  A    between atoms: _328  and  _331
REMARK  146  A    between atoms: _331  and  _332
REMARK  147  A    between atoms: _332  and  _333
REMARK  148  A    between atoms: _336  and  _338
REMARK  149  A    between atoms: _338  and  _339
REMARK  150  A    between atoms: _338  and  _341
REMARK  151  A    between atoms: _341  and  _342
REMARK  152  A    between atoms: _342  and  _343
REMARK  153  A    between atoms: _343  and  _344
REMARK  154  A    between atoms: _353  and  _355
REMARK  155  A    between atoms: _355  and  _356
REMARK  156  A    between atoms: _355  and  _358
REMARK  157  A    between atoms: _358  and  _359
REMARK  158  A    between atoms: _362  and  _364
REMARK  159  A    between atoms: _364  and  _365
REMARK  160  A    between atoms: _364  and  _367
REMARK  161  A    between atoms: _367  and  _368
REMARK  162  A    between atoms: _373  and  _375
REMARK  163  A    between atoms: _375  and  _376
REMARK  164  A    between atoms: _375  and  _378
REMARK  165  A    between atoms: _378  and  _379
REMARK  166  A    between atoms: _379  and  _380
REMARK  167  A    between atoms: _380  and  _381
REMARK  168  A    between atoms: _381  and  _382
REMARK  169  A    between atoms: _386  and  _388
REMARK  170  A    between atoms: _388  and  _389
REMARK  171  A    between atoms: _388  and  _391
REMARK  172  A    between atoms: _391  and  _392
REMARK                            x       y       z     vdW  Elec       q    Type
REMARK                         _______ _______ _______ _____ _____    ______ ____
ROOT
ATOM      1  C   TYR A   2     -32.380  17.425  -1.692  0.00  0.00    +0.241 C 
ATOM      2  O   TYR A   2     -31.781  17.504  -0.620  0.00  0.00    -0.273 OA
ATOM      3  N   SER A   3     -31.762  17.169  -2.839  0.00  0.00    -0.295 N 
ATOM      4  H   SER A   3     -32.319  17.103  -3.715  0.00  0.00    +0.150 HD
ENDROOT
BRANCH   3   5
ATOM      5  CA  SER A   3     -30.319  16.979  -2.893  0.00  0.00    +0.178 C 
BRANCH   5   6
ATOM      6  C   SER A   3     -29.593  18.224  -3.338  0.00  0.00    +0.243 C 
ATOM      7  N   THR A   4     -28.499  18.539  -2.650  0.00  0.00    -0.295 N 
ATOM      8  H   THR A   4     -28.212  17.943  -1.847  0.00  0.00    +0.150 HD
ATOM      9  O   SER A   3     -30.016  18.888  -4.284  0.00  0.00    -0.273 OA
BRANCH   7  10
ATOM     10  CA  THR A   4     -27.699  19.697  -2.998  0.00  0.00    +0.176 C 
BRANCH  10  11
ATOM     11  C   THR A   4     -26.280  19.544  -2.479  0.00  0.00    +0.243 C 
ATOM     12  O   THR A   4     -26.071  19.219  -1.316  0.00  0.00    -0.273 OA
ATOM     13  N   SER A   5     -25.309  19.775  -3.356  0.00  0.00    -0.296 N 
ATOM     14  H   SER A   5     -25.562  20.029  -4.332  0.00  0.00    +0.150 HD
BRANCH  13  15
ATOM     15  CA  SER A   5     -23.903  19.683  -2.993  0.00  0.00    +0.166 C 
BRANCH  15  16
ATOM     16  CB  SER A   5     -23.504  20.863  -2.112  0.00  0.00    +0.229 C 
ATOM     17  OG  SER A   5     -22.370  20.935  -1.626  0.00  0.00    -0.286 OA
ENDBRANCH  15  16
BRANCH  15  18
ATOM     18  C   SER A   5     -23.041  19.669  -4.259  0.00  0.00    +0.165 C 
BRANCH  18  19
ATOM     19  O   SER A   5     -23.327  20.791  -5.078  0.00  0.00    -0.380 OA
ATOM     20  H   SER A   5     -22.759  20.760  -5.888  0.00  0.00    +0.211 HD
ENDBRANCH  18  19
ENDBRANCH  15  18
ENDBRANCH  13  15
ENDBRANCH  10  11
BRANCH  10  21
ATOM     21  CB  THR A   4     -28.307  20.999  -2.434  0.00  0.00    +0.137 C 
ATOM     22  CG2 THR A   4     -28.454  20.925  -0.919  0.00  0.00    +0.034 C 
BRANCH  21  23
ATOM     23  OG1 THR A   4     -27.459  22.100  -2.777  0.00  0.00    -0.382 OA
ATOM     24  HG1 THR A   4     -27.845  22.937  -2.417  0.00  0.00    +0.210 HD
ENDBRANCH  21  23
ENDBRANCH  10  21
ENDBRANCH   7  10
ENDBRANCH   5   6
BRANCH   5  25
ATOM     25  CB  SER A   3     -29.961  15.832  -3.845  0.00  0.00    +0.166 C 
BRANCH  25  26
ATOM     26  OG  SER A   3     -30.087  14.584  -3.192  0.00  0.00    -0.380 OA
ATOM     27  H   SER A   3     -31.021  14.466  -2.885  0.00  0.00    +0.211 HD
ENDBRANCH  25  26
ENDBRANCH   5  25
ENDBRANCH   3   5
BRANCH   1  28
ATOM     28  CA  TYR A   2     -33.901  17.584  -1.755  0.00  0.00    +0.153 C 
BRANCH  28  30
ATOM     29  C   ILE A   1     -35.287  15.594  -1.529  0.00  0.00    +0.238 C 
ATOM     30  N   TYR A   2     -34.462  16.484  -0.987  0.00  0.00    -0.297 N 
ATOM     31  H   TYR A   2     -34.210  16.391   0.018  0.00  0.00    +0.150 HD
ATOM     32  O   ILE A   1     -35.690  15.662  -2.689  0.00  0.00    -0.274 OA
BRANCH  29  33
ATOM     33  CA  ILE A   1     -35.705  14.451  -0.614  0.00  0.00    +0.145 C 
BRANCH  33  34
ATOM     34  N   ILE A   1     -37.112  14.082  -0.655  0.00  0.00    -0.238 NA
ATOM     35  H   ILE A   1     -37.580  13.947  -1.574  0.00  0.00    +0.142 HD
ENDBRANCH  33  34
BRANCH  33  36
ATOM     36  CB  ILE A   1     -34.811  13.239  -0.984  0.00  0.00    +0.025 C 
ATOM     37  CG2 ILE A   1     -33.346  13.583  -0.754  0.00  0.00    +0.002 C 
BRANCH  36  38
ATOM     38  CG1 ILE A   1     -35.189  12.027  -0.136  0.00  0.00    +0.002 C 
ATOM     39  CD1 ILE A   1     -35.178  10.732  -0.907  0.00  0.00    +0.000 C 
ENDBRANCH  36  38
ENDBRANCH  33  36
ENDBRANCH  29  33
ENDBRANCH  28  30
BRANCH  28  40
ATOM     40  CB  TYR A   2     -34.328  18.940  -1.180  0.00  0.00    +0.055 C 
BRANCH  40  41
ATOM     41  CG  TYR A   2     -35.746  19.313  -1.549  0.00  0.00    -0.020 A 
ATOM     42  CD2 TYR A   2     -36.825  18.909  -0.760  0.00  0.00    -0.001 A 
ATOM     43  CE2 TYR A   2     -38.138  19.202  -1.130  0.00  0.00    +0.036 A 
ATOM     44  CZ  TYR A   2     -38.380  19.905  -2.300  0.00  0.00    +0.134 A 
ATOM     45  CE1 TYR A   2     -37.325  20.320  -3.100  0.00  0.00    +0.036 A 
ATOM     46  CD1 TYR A   2     -36.016  20.023  -2.720  0.00  0.00    -0.001 A 
BRANCH  44  47
ATOM     47  OH  TYR A   2     -39.676  20.180  -2.672  0.00  0.00    -0.506 OA
ATOM     48  HH  TYR A   2     -40.297  19.815  -1.993  0.00  0.00    +0.292 HD
ENDBRANCH  44  47
ENDBRANCH  40  41
ENDBRANCH  28  40
ENDBRANCH   1  28
TORSDOF 21
REMARK  Name = ../refined-set-2016/3c2o/3c2o_pocket.pdb
REMARK  172 active torsions:
REMARK  status: ('A' for Active; 'I' for Inactive)
REMARK    1  A    between atoms: _1  and  _3
REMARK    2  A    between atoms: _3  and  _4
REMARK    3  A    between atoms: _7  and  _9
REMARK    4  A    between atoms: _9  and  _10
REMARK    5  A    between atoms: _12  and  _14
REMARK    6  A    between atoms: _14  and  _15
REMARK    7  A    between atoms: _14  and  _17
REMARK    8  A    between atoms: _17  and  _18
REMARK    9  A    between atoms: _21  and  _23
REMARK   10  A    between atoms: _23  and  _24
REMARK   11  A    between atoms: _23  and  _26
REMARK   12  A    between atoms: _26  and  _27
REMARK   13  A    between atoms: _27  and  _28
REMARK   14  A    between atoms: _28  and  _29
REMARK   15  A    between atoms: _38  and  _40
REMARK   16  A    between atoms: _40  and  _41
REMARK   17  A    between atoms: _40  and  _43
REMARK   18  A    between atoms: _43  and  _44
REMARK   19  A    between atoms: _44  and  _45
REMARK   20  A    between atoms: _45  and  _46
REMARK   21  A    between atoms: _46  and  _47
REMARK   22  A    between atoms: _51  and  _53
REMARK   23  A    between atoms: _53  and  _54
REMARK   24  A    between atoms: _53  and  _56
REMARK   25  A    between atoms: _56  and  _57
REMARK   26  A    between atoms: _60  and  _62
REMARK   27  A    between atoms: _62  and  _63
REMARK   28  A    between atoms: _62  and  _65
REMARK   29  A    between atoms: _65  and  _66
REMARK   30  A    between atoms: _66  and  _67
REMARK   31  A    between atoms: _67  and  _68
REMARK   32  A    between atoms: _77  and  _79
REMARK   33  A    between atoms: _79  and  _80
REMARK   34  A    between atoms: _79  and  _82
REMARK   35  A    between atoms: _82  and  _83
REMARK   36  A    between atoms: _83  and  _84
REMARK   37  A    between atoms: _84  and  _85
REMARK   38  A    between atoms: _85  and  _86
REMARK   39  A    between atoms: _90  and  _92
REMARK   40  A    between atoms: _92  and  _93
REMARK   41  A    between atoms: _92  and  _95
REMARK   42  A    between atoms: _95  and  _96
REMARK   43  A    between atoms: _99  and  _101
REMARK   44  A    between atoms: _101  and  _102
REMARK   45  A    between atoms: _101  and  _104
REMARK   46  A    between atoms: _104  and  _105
REMARK   47  A    between atoms: _110  and  _112
REMARK   48  A    between atoms: _112  and  _113
REMARK   49  A    between atoms: _112  and  _115
REMARK   50  A    between atoms: _115  and  _116
REMARK   51  A    between atoms: _116  and  _117
REMARK   52  A    between atoms: _117  and  _118
REMARK   53  A    between atoms: _127  and  _129
REMARK   54  A    between atoms: _129  and  _130
REMARK   55  A    between atoms: _129  and  _132
REMARK   56  A    between atoms: _132  and  _133
REMARK   57  A    between atoms: _138  and  _139
REMARK   58  A    between atoms: _141  and  _143
REMARK   59  A    between atoms: _143  and  _144
REMARK   60  A    between atoms: _143  and  _146
REMARK   61  A    between atoms: _146  and  _147
REMARK   62  A    between atoms: _150  and  _152
REMARK   63  A    between atoms: _152  and  _153
REMARK   64  A    between atoms: _152  and  _155
REMARK   65  A    between atoms: _155  and  _156
REMARK   66  A    between atoms: _159  and  _161
REMARK   67  A    between atoms: _161  and  _162
REMARK   68  A    between atoms: _161  and  _164
REMARK   69  A    between atoms: _164  and  _165
REMARK   70  A    between atoms: _165  and  _166
REMARK   71  A    between atoms: _168  and  _170
REMARK   72  A    between atoms: _170  and  _171
REMARK   73  A    between atoms: _170  and  _173
REMARK   74  A    between atoms: _173  and  _174
REMARK   75  A    between atoms: _174  and  _175
REMARK   76  A    between atoms: _177  and  _179
REMARK   77  A    between atoms: _179  and  _180
REMARK   78  A    between atoms: _179  and  _182
REMARK   79  A    between atoms: _182  and  _183
REMARK   80  A    between atoms: _183  and  _184
REMARK   81  A    between atoms: _184  and  _185
REMARK   82  A    between atoms: _185  and  _186
REMARK   83  A    between atoms: _190  and  _192
REMARK   84  A    between atoms: _192  and  _193
REMARK   85  A    between atoms: _192  and  _195
REMARK   86  A    between atoms: _195  and  _196
REMARK   87  A    between atoms: _196  and  _197
REMARK   88  A    between atoms: _200  and  _202
REMARK   89  A    between atoms: _202  and  _203
REMARK   90  A    between atoms: _202  and  _205
REMARK   91  A    between atoms: _205  and  _206
REMARK   92  A    between atoms: _206  and  _207
REMARK   93  A    between atoms: _210  and  _212
REMARK   94  A    between atoms: _212  and  _213
REMARK   95  A    between atoms: _212  and  _215
REMARK   96  A    between atoms: _215  and  _216
REMARK   97  A    between atoms: _216  and  _217
REMARK   98  A    between atoms: _219  and  _221
REMARK   99  A    between atoms: _224  and  _225
REMARK  100  A    between atoms: _228  and  _230
REMARK  101  A    between atoms: _230  and  _231
REMARK  102  A    between atoms: _230  and  _233
REMARK  103  A    between atoms: _233  and  _234
REMARK  104  A    between atoms: _234  and  _235
REMARK  105  A    between atoms: _238  and  _240
REMARK  106  A    between atoms: _240  and  _241
REMARK  107  A    between atoms: _240  and  _243
REMARK  108  A    between atoms: _245  and  _247
REMARK  109  A    between atoms: _247  and  _248
REMARK  110  A    between atoms: _247  and  _250
REMARK  111  A    between atoms: _250  and  _251
REMARK  112  A    between atoms: _253  and  _255
REMARK  113  A    between atoms: _255  and  _256
REMARK  114  A    between atoms: _258  and  _260
REMARK  115  A    between atoms: _260  and  _261
REMARK  116  A    between atoms: _260  and  _263
REMARK  117  A    between atoms: _263  and  _264
REMARK  118  A    between atoms: _267  and  _269
REMARK  119  A    between atoms: _269  and  _270
REMARK  120  A    between atoms: _269  and  _272
REMARK  121  A    between atoms: _272  and  _273
REMARK  122  A    between atoms: _278  and  _279
REMARK  123  A    between atoms: _281  and  _283
REMARK  124  A    between atoms: _283  and  _284
REMARK  125  A    between atoms: _283  and  _286
REMARK  126  A    between atoms: _286  and  _287
REMARK  127  A    between atoms: _289  and  _291
REMARK  128  A    between atoms: _291  and  _292
REMARK  129  A    between atoms: _291  and  _294
REMARK  130  A    between atoms: _294  and  _295
REMARK  131  A    between atoms: _298  and  _300
REMARK  132  A    between atoms: _300  and  _301
REMARK  133  A    between atoms: _300  and  _303
REMARK  134  A    between atoms: _303  and  _304
REMARK  135  A    between atoms: _306  and  _308
REMARK  136  A    between atoms: _308  and  _309
REMARK  137  A    between atoms: _308  and  _311
REMARK  138  A    between atoms: _311  and  _312
REMARK  139  A    between atoms: _317  and  _319
REMARK  140  A    between atoms: _319  and  _320
REMARK  141  A    between atoms: _319  and  _322
REMARK  142  A    between atoms: _322  and  _323
REMARK  143  A    between atoms: _326  and  _328
REMARK  144  A    between atoms: _328  and  _329
REMARK  145  A    between atoms: _328  and  _331
REMARK  146  A    between atoms: _331  and  _332
REMARK  147  A    between atoms: _332  and  _333
REMARK  148  A    between atoms: _336  and  _338
REMARK  149  A    between atoms: _338  and  _339
REMARK  150  A    between atoms: _338  and  _341
REMARK  151  A    between atoms: _341  and  _342
REMARK  152  A    between atoms: _342  and  _343
REMARK  153  A    between atoms: _343  and  _344
REMARK  154  A    between atoms: _353  and  _355
REMARK  155  A    between atoms: _355  and  _356
REMARK  156  A    between atoms: _355  and  _358
REMARK  157  A    between atoms: _358  and  _359
REMARK  158  A    between atoms: _362  and  _364
REMARK  159  A    between atoms: _364  and  _365
REMARK  160  A    between atoms: _364  and  _367
REMARK  161  A    between atoms: _367  and  _368
REMARK  162  A    between atoms: _373  and  _375
REMARK  163  A    between atoms: _375  and  _376
REMARK  164  A    between atoms: _375  and  _378
REMARK  165  A    between atoms: _378  and  _379
REMARK  166  A    between atoms: _379  and  _380
REMARK  167  A    between atoms: _380  and  _381
REMARK  168  A    between atoms: _381  and  _382
REMARK  169  A    between atoms: _386  and  _388
REMARK  170  A    between atoms: _388  and  _389
REMARK  171  A    between atoms: _388  and  _391
REMARK  172  A    between atoms: _391  and  _392
REMARK                            x       y       z     vdW  Elec       q    Type
REMARK                         _______ _______ _______ _____ _____    ______ ____
ROOT
ATOM      1  CB  HIS A   1     -20.607  18.328   1.517  0.00  0.00    +0.072 C 
ENDROOT
BRANCH   1   2
ATOM      2  CG  HIS A   1     -21.088  17.816   0.193  0.00  0.00    +0.082 A 
ATOM      3  ND1 HIS A   1     -22.413  17.545  -0.067  0.00  0.00    -0.227 NA
ATOM      4  CE1 HIS A   1     -22.536  17.086  -1.300  0.00  0.00    +0.199 A 
ATOM      5  NE2 HIS A   1     -21.336  17.055  -1.851  0.00  0.00    -0.221 NA
ATOM      6  CD2 HIS A   1     -20.414  17.511  -0.940  0.00  0.00    +0.115 A 
ENDBRANCH   1   2
BRANCH   1   7
ATOM      7  CA  HIS A   1     -20.547  19.860   1.610  0.00  0.00    +0.139 C 
BRANCH   7   8
ATOM      8  N   HIS A   1     -21.887  20.427   1.468  0.00  0.00    -0.239 NA
ATOM      9  H   HIS A   1     -22.309  20.534   0.524  0.00  0.00    +0.142 HD
ENDBRANCH   7   8
BRANCH   7  10
ATOM     10  C   HIS A   1     -19.475  20.354   0.642  0.00  0.00    +0.224 C 
ATOM     11  O   HIS A   1     -18.292  20.360   0.977  0.00  0.00    -0.287 OA
ENDBRANCH   7  10
ENDBRANCH   1   7
TORSDOF 4
REMARK  Name = ../refined-set-2016/3c2o/3c2o_pocket.pdb
REMARK  172 active torsions:
REMARK  status: ('A' for Active; 'I' for Inactive)
REMARK    1  A    between atoms: _1  and  _3
REMARK    2  A    between atoms: _3  and  _4
REMARK    3  A    between atoms: _7  and  _9
REMARK    4  A    between atoms: _9  and  _10
REMARK    5  A    between atoms: _12  and  _14
REMARK    6  A    between atoms: _14  and  _15
REMARK    7  A    between atoms: _14  and  _17
REMARK    8  A    between atoms: _17  and  _18
REMARK    9  A    between atoms: _21  and  _23
REMARK   10  A    between atoms: _23  and  _24
REMARK   11  A    between atoms: _23  and  _26
REMARK   12  A    between atoms: _26  and  _27
REMARK   13  A    between atoms: _27  and  _28
REMARK   14  A    between atoms: _28  and  _29
REMARK   15  A    between atoms: _38  and  _40
REMARK   16  A    between atoms: _40  and  _41
REMARK   17  A    between atoms: _40  and  _43
REMARK   18  A    between atoms: _43  and  _44
REMARK   19  A    between atoms: _44  and  _45
REMARK   20  A    between atoms: _45  and  _46
REMARK   21  A    between atoms: _46  and  _47
REMARK   22  A    between atoms: _51  and  _53
REMARK   23  A    between atoms: _53  and  _54
REMARK   24  A    between atoms: _53  and  _56
REMARK   25  A    between atoms: _56  and  _57
REMARK   26  A    between atoms: _60  and  _62
REMARK   27  A    between atoms: _62  and  _63
REMARK   28  A    between atoms: _62  and  _65
REMARK   29  A    between atoms: _65  and  _66
REMARK   30  A    between atoms: _66  and  _67
REMARK   31  A    between atoms: _67  and  _68
REMARK   32  A    between atoms: _77  and  _79
REMARK   33  A    between atoms: _79  and  _80
REMARK   34  A    between atoms: _79  and  _82
REMARK   35  A    between atoms: _82  and  _83
REMARK   36  A    between atoms: _83  and  _84
REMARK   37  A    between atoms: _84  and  _85
REMARK   38  A    between atoms: _85  and  _86
REMARK   39  A    between atoms: _90  and  _92
REMARK   40  A    between atoms: _92  and  _93
REMARK   41  A    between atoms: _92  and  _95
REMARK   42  A    between atoms: _95  and  _96
REMARK   43  A    between atoms: _99  and  _101
REMARK   44  A    between atoms: _101  and  _102
REMARK   45  A    between atoms: _101  and  _104
REMARK   46  A    between atoms: _104  and  _105
REMARK   47  A    between atoms: _110  and  _112
REMARK   48  A    between atoms: _112  and  _113
REMARK   49  A    between atoms: _112  and  _115
REMARK   50  A    between atoms: _115  and  _116
REMARK   51  A    between atoms: _116  and  _117
REMARK   52  A    between atoms: _117  and  _118
REMARK   53  A    between atoms: _127  and  _129
REMARK   54  A    between atoms: _129  and  _130
REMARK   55  A    between atoms: _129  and  _132
REMARK   56  A    between atoms: _132  and  _133
REMARK   57  A    between atoms: _138  and  _139
REMARK   58  A    between atoms: _141  and  _143
REMARK   59  A    between atoms: _143  and  _144
REMARK   60  A    between atoms: _143  and  _146
REMARK   61  A    between atoms: _146  and  _147
REMARK   62  A    between atoms: _150  and  _152
REMARK   63  A    between atoms: _152  and  _153
REMARK   64  A    between atoms: _152  and  _155
REMARK   65  A    between atoms: _155  and  _156
REMARK   66  A    between atoms: _159  and  _161
REMARK   67  A    between atoms: _161  and  _162
REMARK   68  A    between atoms: _161  and  _164
REMARK   69  A    between atoms: _164  and  _165
REMARK   70  A    between atoms: _165  and  _166
REMARK   71  A    between atoms: _168  and  _170
REMARK   72  A    between atoms: _170  and  _171
REMARK   73  A    between atoms: _170  and  _173
REMARK   74  A    between atoms: _173  and  _174
REMARK   75  A    between atoms: _174  and  _175
REMARK   76  A    between atoms: _177  and  _179
REMARK   77  A    between atoms: _179  and  _180
REMARK   78  A    between atoms: _179  and  _182
REMARK   79  A    between atoms: _182  and  _183
REMARK   80  A    between atoms: _183  and  _184
REMARK   81  A    between atoms: _184  and  _185
REMARK   82  A    between atoms: _185  and  _186
REMARK   83  A    between atoms: _190  and  _192
REMARK   84  A    between atoms: _192  and  _193
REMARK   85  A    between atoms: _192  and  _195
REMARK   86  A    between atoms: _195  and  _196
REMARK   87  A    between atoms: _196  and  _197
REMARK   88  A    between atoms: _200  and  _202
REMARK   89  A    between atoms: _202  and  _203
REMARK   90  A    between atoms: _202  and  _205
REMARK   91  A    between atoms: _205  and  _206
REMARK   92  A    between atoms: _206  and  _207
REMARK   93  A    between atoms: _210  and  _212
REMARK   94  A    between atoms: _212  and  _213
REMARK   95  A    between atoms: _212  and  _215
REMARK   96  A    between atoms: _215  and  _216
REMARK   97  A    between atoms: _216  and  _217
REMARK   98  A    between atoms: _219  and  _221
REMARK   99  A    between atoms: _224  and  _225
REMARK  100  A    between atoms: _228  and  _230
REMARK  101  A    between atoms: _230  and  _231
REMARK  102  A    between atoms: _230  and  _233
REMARK  103  A    between atoms: _233  and  _234
REMARK  104  A    between atoms: _234  and  _235
REMARK  105  A    between atoms: _238  and  _240
REMARK  106  A    between atoms: _240  and  _241
REMARK  107  A    between atoms: _240  and  _243
REMARK  108  A    between atoms: _245  and  _247
REMARK  109  A    between atoms: _247  and  _248
REMARK  110  A    between atoms: _247  and  _250
REMARK  111  A    between atoms: _250  and  _251
REMARK  112  A    between atoms: _253  and  _255
REMARK  113  A    between atoms: _255  and  _256
REMARK  114  A    between atoms: _258  and  _260
REMARK  115  A    between atoms: _260  and  _261
REMARK  116  A    between atoms: _260  and  _263
REMARK  117  A    between atoms: _263  and  _264
REMARK  118  A    between atoms: _267  and  _269
REMARK  119  A    between atoms: _269  and  _270
REMARK  120  A    between atoms: _269  and  _272
REMARK  121  A    between atoms: _272  and  _273
REMARK  122  A    between atoms: _278  and  _279
REMARK  123  A    between atoms: _281  and  _283
REMARK  124  A    between atoms: _283  and  _284
REMARK  125  A    between atoms: _283  and  _286
REMARK  126  A    between atoms: _286  and  _287
REMARK  127  A    between atoms: _289  and  _291
REMARK  128  A    between atoms: _291  and  _292
REMARK  129  A    between atoms: _291  and  _294
REMARK  130  A    between atoms: _294  and  _295
REMARK  131  A    between atoms: _298  and  _300
REMARK  132  A    between atoms: _300  and  _301
REMARK  133  A    between atoms: _300  and  _303
REMARK  134  A    between atoms: _303  and  _304
REMARK  135  A    between atoms: _306  and  _308
REMARK  136  A    between atoms: _308  and  _309
REMARK  137  A    between atoms: _308  and  _311
REMARK  138  A    between atoms: _311  and  _312
REMARK  139  A    between atoms: _317  and  _319
REMARK  140  A    between atoms: _319  and  _320
REMARK  141  A    between atoms: _319  and  _322
REMARK  142  A    between atoms: _322  and  _323
REMARK  143  A    between atoms: _326  and  _328
REMARK  144  A    between atoms: _328  and  _329
REMARK  145  A    between atoms: _328  and  _331
REMARK  146  A    between atoms: _331  and  _332
REMARK  147  A    between atoms: _332  and  _333
REMARK  148  A    between atoms: _336  and  _338
REMARK  149  A    between atoms: _338  and  _339
REMARK  150  A    between atoms: _338  and  _341
REMARK  151  A    between atoms: _341  and  _342
REMARK  152  A    between atoms: _342  and  _343
REMARK  153  A    between atoms: _343  and  _344
REMARK  154  A    between atoms: _353  and  _355
REMARK  155  A    between atoms: _355  and  _356
REMARK  156  A    between atoms: _355  and  _358
REMARK  157  A    between atoms: _358  and  _359
REMARK  158  A    between atoms: _362  and  _364
REMARK  159  A    between atoms: _364  and  _365
REMARK  160  A    between atoms: _364  and  _367
REMARK  161  A    between atoms: _367  and  _368
REMARK  162  A    between atoms: _373  and  _375
REMARK  163  A    between atoms: _375  and  _376
REMARK  164  A    between atoms: _375  and  _378
REMARK  165  A    between atoms: _378  and  _379
REMARK  166  A    between atoms: _379  and  _380
REMARK  167  A    between atoms: _380  and  _381
REMARK  168  A    between atoms: _381  and  _382
REMARK  169  A    between atoms: _386  and  _388
REMARK  170  A    between atoms: _388  and  _389
REMARK  171  A    between atoms: _388  and  _391
REMARK  172  A    between atoms: _391  and  _392
REMARK                            x       y       z     vdW  Elec       q    Type
REMARK                         _______ _______ _______ _____ _____    ______ ____
ROOT
ATOM      1  CA  ASP A   1     -16.189   5.374  -5.658  0.00  0.00    +0.144 C 
ENDROOT
BRANCH   1   2
ATOM      2  N   ASP A   1     -14.862   5.228  -5.079  0.00  0.00    -0.239 NA
ATOM      3  H   ASP A   1     -14.041   5.105  -5.705  0.00  0.00    +0.142 HD
ENDBRANCH   1   2
BRANCH   1   4
ATOM      4  C   ASP A   1     -16.825   4.022  -5.982  0.00  0.00    +0.225 C 
ATOM      5  O   ASP A   1     -18.044   3.912  -6.079  0.00  0.00    -0.287 OA
ENDBRANCH   1   4
BRANCH   1   6
ATOM      6  CB  ASP A   1     -16.099   6.249  -6.915  0.00  0.00    +0.139 C 
BRANCH   6   7
ATOM      7  CG  ASP A   1     -17.423   6.892  -7.282  0.00  0.00    +0.367 C 
ATOM      8  OD2 ASP A   1     -18.304   7.006  -6.402  0.00  0.00    -0.246 OA
ATOM      9  OD1 ASP A   1     -17.582   7.309  -8.448  0.00  0.00    -0.246 OA
ENDBRANCH   6   7
ENDBRANCH   1   6
TORSDOF 4
REMARK  Name = ../refined-set-2016/3c2o/3c2o_pocket.pdb
REMARK  172 active torsions:
REMARK  status: ('A' for Active; 'I' for Inactive)
REMARK    1  A    between atoms: _1  and  _3
REMARK    2  A    between atoms: _3  and  _4
REMARK    3  A    between atoms: _7  and  _9
REMARK    4  A    between atoms: _9  and  _10
REMARK    5  A    between atoms: _12  and  _14
REMARK    6  A    between atoms: _14  and  _15
REMARK    7  A    between atoms: _14  and  _17
REMARK    8  A    between atoms: _17  and  _18
REMARK    9  A    between atoms: _21  and  _23
REMARK   10  A    between atoms: _23  and  _24
REMARK   11  A    between atoms: _23  and  _26
REMARK   12  A    between atoms: _26  and  _27
REMARK   13  A    between atoms: _27  and  _28
REMARK   14  A    between atoms: _28  and  _29
REMARK   15  A    between atoms: _38  and  _40
REMARK   16  A    between atoms: _40  and  _41
REMARK   17  A    between atoms: _40  and  _43
REMARK   18  A    between atoms: _43  and  _44
REMARK   19  A    between atoms: _44  and  _45
REMARK   20  A    between atoms: _45  and  _46
REMARK   21  A    between atoms: _46  and  _47
REMARK   22  A    between atoms: _51  and  _53
REMARK   23  A    between atoms: _53  and  _54
REMARK   24  A    between atoms: _53  and  _56
REMARK   25  A    between atoms: _56  and  _57
REMARK   26  A    between atoms: _60  and  _62
REMARK   27  A    between atoms: _62  and  _63
REMARK   28  A    between atoms: _62  and  _65
REMARK   29  A    between atoms: _65  and  _66
REMARK   30  A    between atoms: _66  and  _67
REMARK   31  A    between atoms: _67  and  _68
REMARK   32  A    between atoms: _77  and  _79
REMARK   33  A    between atoms: _79  and  _80
REMARK   34  A    between atoms: _79  and  _82
REMARK   35  A    between atoms: _82  and  _83
REMARK   36  A    between atoms: _83  and  _84
REMARK   37  A    between atoms: _84  and  _85
REMARK   38  A    between atoms: _85  and  _86
REMARK   39  A    between atoms: _90  and  _92
REMARK   40  A    between atoms: _92  and  _93
REMARK   41  A    between atoms: _92  and  _95
REMARK   42  A    between atoms: _95  and  _96
REMARK   43  A    between atoms: _99  and  _101
REMARK   44  A    between atoms: _101  and  _102
REMARK   45  A    between atoms: _101  and  _104
REMARK   46  A    between atoms: _104  and  _105
REMARK   47  A    between atoms: _110  and  _112
REMARK   48  A    between atoms: _112  and  _113
REMARK   49  A    between atoms: _112  and  _115
REMARK   50  A    between atoms: _115  and  _116
REMARK   51  A    between atoms: _116  and  _117
REMARK   52  A    between atoms: _117  and  _118
REMARK   53  A    between atoms: _127  and  _129
REMARK   54  A    between atoms: _129  and  _130
REMARK   55  A    between atoms: _129  and  _132
REMARK   56  A    between atoms: _132  and  _133
REMARK   57  A    between atoms: _138  and  _139
REMARK   58  A    between atoms: _141  and  _143
REMARK   59  A    between atoms: _143  and  _144
REMARK   60  A    between atoms: _143  and  _146
REMARK   61  A    between atoms: _146  and  _147
REMARK   62  A    between atoms: _150  and  _152
REMARK   63  A    between atoms: _152  and  _153
REMARK   64  A    between atoms: _152  and  _155
REMARK   65  A    between atoms: _155  and  _156
REMARK   66  A    between atoms: _159  and  _161
REMARK   67  A    between atoms: _161  and  _162
REMARK   68  A    between atoms: _161  and  _164
REMARK   69  A    between atoms: _164  and  _165
REMARK   70  A    between atoms: _165  and  _166
REMARK   71  A    between atoms: _168  and  _170
REMARK   72  A    between atoms: _170  and  _171
REMARK   73  A    between atoms: _170  and  _173
REMARK   74  A    between atoms: _173  and  _174
REMARK   75  A    between atoms: _174  and  _175
REMARK   76  A    between atoms: _177  and  _179
REMARK   77  A    between atoms: _179  and  _180
REMARK   78  A    between atoms: _179  and  _182
REMARK   79  A    between atoms: _182  and  _183
REMARK   80  A    between atoms: _183  and  _184
REMARK   81  A    between atoms: _184  and  _185
REMARK   82  A    between atoms: _185  and  _186
REMARK   83  A    between atoms: _190  and  _192
REMARK   84  A    between atoms: _192  and  _193
REMARK   85  A    between atoms: _192  and  _195
REMARK   86  A    between atoms: _195  and  _196
REMARK   87  A    between atoms: _196  and  _197
REMARK   88  A    between atoms: _200  and  _202
REMARK   89  A    between atoms: _202  and  _203
REMARK   90  A    between atoms: _202  and  _205
REMARK   91  A    between atoms: _205  and  _206
REMARK   92  A    between atoms: _206  and  _207
REMARK   93  A    between atoms: _210  and  _212
REMARK   94  A    between atoms: _212  and  _213
REMARK   95  A    between atoms: _212  and  _215
REMARK   96  A    between atoms: _215  and  _216
REMARK   97  A    between atoms: _216  and  _217
REMARK   98  A    between atoms: _219  and  _221
REMARK   99  A    between atoms: _224  and  _225
REMARK  100  A    between atoms: _228  and  _230
REMARK  101  A    between atoms: _230  and  _231
REMARK  102  A    between atoms: _230  and  _233
REMARK  103  A    between atoms: _233  and  _234
REMARK  104  A    between atoms: _234  and  _235
REMARK  105  A    between atoms: _238  and  _240
REMARK  106  A    between atoms: _240  and  _241
REMARK  107  A    between atoms: _240  and  _243
REMARK  108  A    between atoms: _245  and  _247
REMARK  109  A    between atoms: _247  and  _248
REMARK  110  A    between atoms: _247  and  _250
REMARK  111  A    between atoms: _250  and  _251
REMARK  112  A    between atoms: _253  and  _255
REMARK  113  A    between atoms: _255  and  _256
REMARK  114  A    between atoms: _258  and  _260
REMARK  115  A    between atoms: _260  and  _261
REMARK  116  A    between atoms: _260  and  _263
REMARK  117  A    between atoms: _263  and  _264
REMARK  118  A    between atoms: _267  and  _269
REMARK  119  A    between atoms: _269  and  _270
REMARK  120  A    between atoms: _269  and  _272
REMARK  121  A    between atoms: _272  and  _273
REMARK  122  A    between atoms: _278  and  _279
REMARK  123  A    between atoms: _281  and  _283
REMARK  124  A    between atoms: _283  and  _284
REMARK  125  A    between atoms: _283  and  _286
REMARK  126  A    between atoms: _286  and  _287
REMARK  127  A    between atoms: _289  and  _291
REMARK  128  A    between atoms: _291  and  _292
REMARK  129  A    between atoms: _291  and  _294
REMARK  130  A    between atoms: _294  and  _295
REMARK  131  A    between atoms: _298  and  _300
REMARK  132  A    between atoms: _300  and  _301
REMARK  133  A    between atoms: _300  and  _303
REMARK  134  A    between atoms: _303  and  _304
REMARK  135  A    between atoms: _306  and  _308
REMARK  136  A    between atoms: _308  and  _309
REMARK  137  A    between atoms: _308  and  _311
REMARK  138  A    between atoms: _311  and  _312
REMARK  139  A    between atoms: _317  and  _319
REMARK  140  A    between atoms: _319  and  _320
REMARK  141  A    between atoms: _319  and  _322
REMARK  142  A    between atoms: _322  and  _323
REMARK  143  A    between atoms: _326  and  _328
REMARK  144  A    between atoms: _328  and  _329
REMARK  145  A    between atoms: _328  and  _331
REMARK  146  A    between atoms: _331  and  _332
REMARK  147  A    between atoms: _332  and  _333
REMARK  148  A    between atoms: _336  and  _338
REMARK  149  A    between atoms: _338  and  _339
REMARK  150  A    between atoms: _338  and  _341
REMARK  151  A    between atoms: _341  and  _342
REMARK  152  A    between atoms: _342  and  _343
REMARK  153  A    between atoms: _343  and  _344
REMARK  154  A    between atoms: _353  and  _355
REMARK  155  A    between atoms: _355  and  _356
REMARK  156  A    between atoms: _355  and  _358
REMARK  157  A    between atoms: _358  and  _359
REMARK  158  A    between atoms: _362  and  _364
REMARK  159  A    between atoms: _364  and  _365
REMARK  160  A    between atoms: _364  and  _367
REMARK  161  A    between atoms: _367  and  _368
REMARK  162  A    between atoms: _373  and  _375
REMARK  163  A    between atoms: _375  and  _376
REMARK  164  A    between atoms: _375  and  _378
REMARK  165  A    between atoms: _378  and  _379
REMARK  166  A    between atoms: _379  and  _380
REMARK  167  A    between atoms: _380  and  _381
REMARK  168  A    between atoms: _381  and  _382
REMARK  169  A    between atoms: _386  and  _388
REMARK  170  A    between atoms: _388  and  _389
REMARK  171  A    between atoms: _388  and  _391
REMARK  172  A    between atoms: _391  and  _392
REMARK                            x       y       z     vdW  Elec       q    Type
REMARK                         _______ _______ _______ _____ _____    ______ ____
ROOT
ATOM      1  CA  ARG A   2     -17.901  12.222 -11.087  0.00  0.00    +0.137 C 
ENDROOT
BRANCH   1   3
ATOM      2  C   GLU A   1     -17.322  12.127 -13.451  0.00  0.00    +0.238 C 
ATOM      3  N   ARG A   2     -17.784  11.519 -12.361  0.00  0.00    -0.298 N 
ATOM      4  H   ARG A   2     -18.068  10.520 -12.418  0.00  0.00    +0.150 HD
ATOM      5  O   GLU A   1     -16.939  13.296 -13.455  0.00  0.00    -0.274 OA
BRANCH   2   6
ATOM      6  CA  GLU A   1     -17.314  11.305 -14.738  0.00  0.00    +0.145 C 
BRANCH   6   7
ATOM      7  N   GLU A   1     -16.590  10.055 -14.926  0.00  0.00    -0.238 NA
ATOM      8  H   GLU A   1     -17.044   9.290 -15.465  0.00  0.00    +0.142 HD
ENDBRANCH   6   7
BRANCH   6   9
ATOM      9  CB  GLU A   1     -18.803  11.103 -15.027  0.00  0.00    +0.038 C 
BRANCH   9  10
ATOM     10  CG  GLU A   1     -19.572  12.409 -15.057  0.00  0.00    +0.116 C 
BRANCH  10  11
ATOM     11  CD  GLU A   1     -21.044  12.219 -15.328  0.00  0.00    +0.365 C 
ATOM     12  OE2 GLU A   1     -21.860  12.908 -14.676  0.00  0.00    -0.246 OA
ATOM     13  OE1 GLU A   1     -21.381  11.393 -16.201  0.00  0.00    -0.246 OA
ENDBRANCH  10  11
ENDBRANCH   9  10
ENDBRANCH   6   9
ENDBRANCH   2   6
ENDBRANCH   1   3
BRANCH   1  14
ATOM     14  C   ARG A   2     -16.507  12.509 -10.527  0.00  0.00    +0.227 C 
ATOM     15  O   ARG A   2     -16.229  13.631 -10.108  0.00  0.00    -0.286 OA
ENDBRANCH   1  14
BRANCH   1  16
ATOM     16  CB  ARG A   2     -18.751  11.403 -10.098  0.00  0.00    +0.031 C 
BRANCH  16  17
ATOM     17  CG  ARG A   2     -18.922  12.027  -8.714  0.00  0.00    +0.045 C 
BRANCH  17  18
ATOM     18  CD  ARG A   2     -19.301  13.492  -8.788  0.00  0.00    +0.174 C 
BRANCH  18  19
ATOM     19  NE  ARG A   2     -20.573  13.715  -9.467  0.00  0.00    -0.265 N 
ATOM     20  HE  ARG A   2     -21.331  13.016  -9.330  0.00  0.00    +0.259 HD
ATOM     21  CZ  ARG A   2     -20.820  14.761 -10.252  0.00  0.00    +0.342 C 
ATOM     22  NH2 ARG A   2     -19.875  15.675 -10.458  0.00  0.00    -0.292 N 
ATOM     23 HH21 ARG A   2     -18.944  15.572 -10.006  0.00  0.00    +0.255 HD
ATOM     24 HH22 ARG A   2     -20.067  16.493 -11.071  0.00  0.00    +0.255 HD
ATOM     25  NH1 ARG A   2     -22.008  14.899 -10.825  0.00  0.00    -0.292 N 
ATOM     26 HH11 ARG A   2     -22.750  14.189 -10.661  0.00  0.00    +0.255 HD
ATOM     27 HH12 ARG A   2     -22.198  15.718 -11.438  0.00  0.00    +0.255 HD
ENDBRANCH  18  19
ENDBRANCH  17  18
ENDBRANCH  16  17
ENDBRANCH   1  16
TORSDOF 11
REMARK  Name = ../refined-set-2016/3c2o/3c2o_pocket.pdb
REMARK  172 active torsions:
REMARK  status: ('A' for Active; 'I' for Inactive)
REMARK    1  A    between atoms: _1  and  _3
REMARK    2  A    between atoms: _3  and  _4
REMARK    3  A    between atoms: _7  and  _9
REMARK    4  A    between atoms: _9  and  _10
REMARK    5  A    between atoms: _12  and  _14
REMARK    6  A    between atoms: _14  and  _15
REMARK    7  A    between atoms: _14  and  _17
REMARK    8  A    between atoms: _17  and  _18
REMARK    9  A    between atoms: _21  and  _23
REMARK   10  A    between atoms: _23  and  _24
REMARK   11  A    between atoms: _23  and  _26
REMARK   12  A    between atoms: _26  and  _27
REMARK   13  A    between atoms: _27  and  _28
REMARK   14  A    between atoms: _28  and  _29
REMARK   15  A    between atoms: _38  and  _40
REMARK   16  A    between atoms: _40  and  _41
REMARK   17  A    between atoms: _40  and  _43
REMARK   18  A    between atoms: _43  and  _44
REMARK   19  A    between atoms: _44  and  _45
REMARK   20  A    between atoms: _45  and  _46
REMARK   21  A    between atoms: _46  and  _47
REMARK   22  A    between atoms: _51  and  _53
REMARK   23  A    between atoms: _53  and  _54
REMARK   24  A    between atoms: _53  and  _56
REMARK   25  A    between atoms: _56  and  _57
REMARK   26  A    between atoms: _60  and  _62
REMARK   27  A    between atoms: _62  and  _63
REMARK   28  A    between atoms: _62  and  _65
REMARK   29  A    between atoms: _65  and  _66
REMARK   30  A    between atoms: _66  and  _67
REMARK   31  A    between atoms: _67  and  _68
REMARK   32  A    between atoms: _77  and  _79
REMARK   33  A    between atoms: _79  and  _80
REMARK   34  A    between atoms: _79  and  _82
REMARK   35  A    between atoms: _82  and  _83
REMARK   36  A    between atoms: _83  and  _84
REMARK   37  A    between atoms: _84  and  _85
REMARK   38  A    between atoms: _85  and  _86
REMARK   39  A    between atoms: _90  and  _92
REMARK   40  A    between atoms: _92  and  _93
REMARK   41  A    between atoms: _92  and  _95
REMARK   42  A    between atoms: _95  and  _96
REMARK   43  A    between atoms: _99  and  _101
REMARK   44  A    between atoms: _101  and  _102
REMARK   45  A    between atoms: _101  and  _104
REMARK   46  A    between atoms: _104  and  _105
REMARK   47  A    between atoms: _110  and  _112
REMARK   48  A    between atoms: _112  and  _113
REMARK   49  A    between atoms: _112  and  _115
REMARK   50  A    between atoms: _115  and  _116
REMARK   51  A    between atoms: _116  and  _117
REMARK   52  A    between atoms: _117  and  _118
REMARK   53  A    between atoms: _127  and  _129
REMARK   54  A    between atoms: _129  and  _130
REMARK   55  A    between atoms: _129  and  _132
REMARK   56  A    between atoms: _132  and  _133
REMARK   57  A    between atoms: _138  and  _139
REMARK   58  A    between atoms: _141  and  _143
REMARK   59  A    between atoms: _143  and  _144
REMARK   60  A    between atoms: _143  and  _146
REMARK   61  A    between atoms: _146  and  _147
REMARK   62  A    between atoms: _150  and  _152
REMARK   63  A    between atoms: _152  and  _153
REMARK   64  A    between atoms: _152  and  _155
REMARK   65  A    between atoms: _155  and  _156
REMARK   66  A    between atoms: _159  and  _161
REMARK   67  A    between atoms: _161  and  _162
REMARK   68  A    between atoms: _161  and  _164
REMARK   69  A    between atoms: _164  and  _165
REMARK   70  A    between atoms: _165  and  _166
REMARK   71  A    between atoms: _168  and  _170
REMARK   72  A    between atoms: _170  and  _171
REMARK   73  A    between atoms: _170  and  _173
REMARK   74  A    between atoms: _173  and  _174
REMARK   75  A    between atoms: _174  and  _175
REMARK   76  A    between atoms: _177  and  _179
REMARK   77  A    between atoms: _179  and  _180
REMARK   78  A    between atoms: _179  and  _182
REMARK   79  A    between atoms: _182  and  _183
REMARK   80  A    between atoms: _183  and  _184
REMARK   81  A    between atoms: _184  and  _185
REMARK   82  A    between atoms: _185  and  _186
REMARK   83  A    between atoms: _190  and  _192
REMARK   84  A    between atoms: _192  and  _193
REMARK   85  A    between atoms: _192  and  _195
REMARK   86  A    between atoms: _195  and  _196
REMARK   87  A    between atoms: _196  and  _197
REMARK   88  A    between atoms: _200  and  _202
REMARK   89  A    between atoms: _202  and  _203
REMARK   90  A    between atoms: _202  and  _205
REMARK   91  A    between atoms: _205  and  _206
REMARK   92  A    between atoms: _206  and  _207
REMARK   93  A    between atoms: _210  and  _212
REMARK   94  A    between atoms: _212  and  _213
REMARK   95  A    between atoms: _212  and  _215
REMARK   96  A    between atoms: _215  and  _216
REMARK   97  A    between atoms: _216  and  _217
REMARK   98  A    between atoms: _219  and  _221
REMARK   99  A    between atoms: _224  and  _225
REMARK  100  A    between atoms: _228  and  _230
REMARK  101  A    between atoms: _230  and  _231
REMARK  102  A    between atoms: _230  and  _233
REMARK  103  A    between atoms: _233  and  _234
REMARK  104  A    between atoms: _234  and  _235
REMARK  105  A    between atoms: _238  and  _240
REMARK  106  A    between atoms: _240  and  _241
REMARK  107  A    between atoms: _240  and  _243
REMARK  108  A    between atoms: _245  and  _247
REMARK  109  A    between atoms: _247  and  _248
REMARK  110  A    between atoms: _247  and  _250
REMARK  111  A    between atoms: _250  and  _251
REMARK  112  A    between atoms: _253  and  _255
REMARK  113  A    between atoms: _255  and  _256
REMARK  114  A    between atoms: _258  and  _260
REMARK  115  A    between atoms: _260  and  _261
REMARK  116  A    between atoms: _260  and  _263
REMARK  117  A    between atoms: _263  and  _264
REMARK  118  A    between atoms: _267  and  _269
REMARK  119  A    between atoms: _269  and  _270
REMARK  120  A    between atoms: _269  and  _272
REMARK  121  A    between atoms: _272  and  _273
REMARK  122  A    between atoms: _278  and  _279
REMARK  123  A    between atoms: _281  and  _283
REMARK  124  A    between atoms: _283  and  _284
REMARK  125  A    between atoms: _283  and  _286
REMARK  126  A    between atoms: _286  and  _287
REMARK  127  A    between atoms: _289  and  _291
REMARK  128  A    between atoms: _291  and  _292
REMARK  129  A    between atoms: _291  and  _294
REMARK  130  A    between atoms: _294  and  _295
REMARK  131  A    between atoms: _298  and  _300
REMARK  132  A    between atoms: _300  and  _301
REMARK  133  A    between atoms: _300  and  _303
REMARK  134  A    between atoms: _303  and  _304
REMARK  135  A    between atoms: _306  and  _308
REMARK  136  A    between atoms: _308  and  _309
REMARK  137  A    between atoms: _308  and  _311
REMARK  138  A    between atoms: _311  and  _312
REMARK  139  A    between atoms: _317  and  _319
REMARK  140  A    between atoms: _319  and  _320
REMARK  141  A    between atoms: _319  and  _322
REMARK  142  A    between atoms: _322  and  _323
REMARK  143  A    between atoms: _326  and  _328
REMARK  144  A    between atoms: _328  and  _329
REMARK  145  A    between atoms: _328  and  _331
REMARK  146  A    between atoms: _331  and  _332
REMARK  147  A    between atoms: _332  and  _333
REMARK  148  A    between atoms: _336  and  _338
REMARK  149  A    between atoms: _338  and  _339
REMARK  150  A    between atoms: _338  and  _341
REMARK  151  A    between atoms: _341  and  _342
REMARK  152  A    between atoms: _342  and  _343
REMARK  153  A    between atoms: _343  and  _344
REMARK  154  A    between atoms: _353  and  _355
REMARK  155  A    between atoms: _355  and  _356
REMARK  156  A    between atoms: _355  and  _358
REMARK  157  A    between atoms: _358  and  _359
REMARK  158  A    between atoms: _362  and  _364
REMARK  159  A    between atoms: _364  and  _365
REMARK  160  A    between atoms: _364  and  _367
REMARK  161  A    between atoms: _367  and  _368
REMARK  162  A    between atoms: _373  and  _375
REMARK  163  A    between atoms: _375  and  _376
REMARK  164  A    between atoms: _375  and  _378
REMARK  165  A    between atoms: _378  and  _379
REMARK  166  A    between atoms: _379  and  _380
REMARK  167  A    between atoms: _380  and  _381
REMARK  168  A    between atoms: _381  and  _382
REMARK  169  A    between atoms: _386  and  _388
REMARK  170  A    between atoms: _388  and  _389
REMARK  171  A    between atoms: _388  and  _391
REMARK  172  A    between atoms: _391  and  _392
REMARK                            x       y       z     vdW  Elec       q    Type
REMARK                         _______ _______ _______ _____ _____    ______ ____
ROOT
ATOM      1  C   LEU A   1     -15.208  17.049 -10.946  0.00  0.00    +0.238 C 
ATOM      2  N   ASN A   2     -15.005  16.139 -10.000  0.00  0.00    -0.298 N 
ATOM      3  H   ASN A   2     -15.055  15.128 -10.241  0.00  0.00    +0.150 HD
ATOM      4  O   LEU A   1     -15.172  18.263 -10.721  0.00  0.00    -0.274 OA
ENDROOT
BRANCH   1   5
ATOM      5  CA  LEU A   1     -15.493  16.528 -12.353  0.00  0.00    +0.145 C 
BRANCH   5   6
ATOM      6  N   LEU A   1     -14.851  15.241 -12.593  0.00  0.00    -0.238 NA
ATOM      7  H   LEU A   1     -15.438  14.384 -12.642  0.00  0.00    +0.142 HD
ENDBRANCH   5   6
BRANCH   5   8
ATOM      8  CB  LEU A   1     -17.009  16.412 -12.579  0.00  0.00    +0.026 C 
BRANCH   8   9
ATOM      9  CG  LEU A   1     -17.443  15.935 -13.974  0.00  0.00    +0.002 C 
ATOM     10  CD2 LEU A   1     -18.977  15.910 -14.089  0.00  0.00    +0.000 C 
ATOM     11  CD1 LEU A   1     -16.850  16.861 -15.024  0.00  0.00    +0.000 C 
ENDBRANCH   8   9
ENDBRANCH   5   8
ENDBRANCH   1   5
BRANCH   2  12
ATOM     12  CA  ASN A   2     -14.713  16.539  -8.626  0.00  0.00    +0.146 C 
BRANCH  12  13
ATOM     13  C   ASN A   2     -13.327  17.162  -8.574  0.00  0.00    +0.227 C 
ATOM     14  O   ASN A   2     -13.047  18.016  -7.734  0.00  0.00    -0.286 OA
ENDBRANCH  12  13
BRANCH  12  15
ATOM     15  CB  ASN A   2     -14.779  15.338  -7.677  0.00  0.00    +0.112 C 
BRANCH  15  16
ATOM     16  CG  ASN A   2     -16.201  14.894  -7.406  0.00  0.00    +0.222 C 
ATOM     17  ND2 ASN A   2     -16.369  13.656  -6.933  0.00  0.00    -0.329 N 
ATOM     18 HD21 ASN A   2     -17.324  13.308  -6.716  0.00  0.00    +0.145 HD
ATOM     19 HD22 ASN A   2     -15.544  13.041  -6.782  0.00  0.00    +0.145 HD
ATOM     20  OD1 ASN A   2     -17.140  15.663  -7.603  0.00  0.00    -0.275 OA
ENDBRANCH  15  16
ENDBRANCH  12  15
ENDBRANCH   2  12
TORSDOF 8
REMARK  Name = ../refined-set-2016/3c2o/3c2o_pocket.pdb
REMARK  172 active torsions:
REMARK  status: ('A' for Active; 'I' for Inactive)
REMARK    1  A    between atoms: _1  and  _3
REMARK    2  A    between atoms: _3  and  _4
REMARK    3  A    between atoms: _7  and  _9
REMARK    4  A    between atoms: _9  and  _10
REMARK    5  A    between atoms: _12  and  _14
REMARK    6  A    between atoms: _14  and  _15
REMARK    7  A    between atoms: _14  and  _17
REMARK    8  A    between atoms: _17  and  _18
REMARK    9  A    between atoms: _21  and  _23
REMARK   10  A    between atoms: _23  and  _24
REMARK   11  A    between atoms: _23  and  _26
REMARK   12  A    between atoms: _26  and  _27
REMARK   13  A    between atoms: _27  and  _28
REMARK   14  A    between atoms: _28  and  _29
REMARK   15  A    between atoms: _38  and  _40
REMARK   16  A    between atoms: _40  and  _41
REMARK   17  A    between atoms: _40  and  _43
REMARK   18  A    between atoms: _43  and  _44
REMARK   19  A    between atoms: _44  and  _45
REMARK   20  A    between atoms: _45  and  _46
REMARK   21  A    between atoms: _46  and  _47
REMARK   22  A    between atoms: _51  and  _53
REMARK   23  A    between atoms: _53  and  _54
REMARK   24  A    between atoms: _53  and  _56
REMARK   25  A    between atoms: _56  and  _57
REMARK   26  A    between atoms: _60  and  _62
REMARK   27  A    between atoms: _62  and  _63
REMARK   28  A    between atoms: _62  and  _65
REMARK   29  A    between atoms: _65  and  _66
REMARK   30  A    between atoms: _66  and  _67
REMARK   31  A    between atoms: _67  and  _68
REMARK   32  A    between atoms: _77  and  _79
REMARK   33  A    between atoms: _79  and  _80
REMARK   34  A    between atoms: _79  and  _82
REMARK   35  A    between atoms: _82  and  _83
REMARK   36  A    between atoms: _83  and  _84
REMARK   37  A    between atoms: _84  and  _85
REMARK   38  A    between atoms: _85  and  _86
REMARK   39  A    between atoms: _90  and  _92
REMARK   40  A    between atoms: _92  and  _93
REMARK   41  A    between atoms: _92  and  _95
REMARK   42  A    between atoms: _95  and  _96
REMARK   43  A    between atoms: _99  and  _101
REMARK   44  A    between atoms: _101  and  _102
REMARK   45  A    between atoms: _101  and  _104
REMARK   46  A    between atoms: _104  and  _105
REMARK   47  A    between atoms: _110  and  _112
REMARK   48  A    between atoms: _112  and  _113
REMARK   49  A    between atoms: _112  and  _115
REMARK   50  A    between atoms: _115  and  _116
REMARK   51  A    between atoms: _116  and  _117
REMARK   52  A    between atoms: _117  and  _118
REMARK   53  A    between atoms: _127  and  _129
REMARK   54  A    between atoms: _129  and  _130
REMARK   55  A    between atoms: _129  and  _132
REMARK   56  A    between atoms: _132  and  _133
REMARK   57  A    between atoms: _138  and  _139
REMARK   58  A    between atoms: _141  and  _143
REMARK   59  A    between atoms: _143  and  _144
REMARK   60  A    between atoms: _143  and  _146
REMARK   61  A    between atoms: _146  and  _147
REMARK   62  A    between atoms: _150  and  _152
REMARK   63  A    between atoms: _152  and  _153
REMARK   64  A    between atoms: _152  and  _155
REMARK   65  A    between atoms: _155  and  _156
REMARK   66  A    between atoms: _159  and  _161
REMARK   67  A    between atoms: _161  and  _162
REMARK   68  A    between atoms: _161  and  _164
REMARK   69  A    between atoms: _164  and  _165
REMARK   70  A    between atoms: _165  and  _166
REMARK   71  A    between atoms: _168  and  _170
REMARK   72  A    between atoms: _170  and  _171
REMARK   73  A    between atoms: _170  and  _173
REMARK   74  A    between atoms: _173  and  _174
REMARK   75  A    between atoms: _174  and  _175
REMARK   76  A    between atoms: _177  and  _179
REMARK   77  A    between atoms: _179  and  _180
REMARK   78  A    between atoms: _179  and  _182
REMARK   79  A    between atoms: _182  and  _183
REMARK   80  A    between atoms: _183  and  _184
REMARK   81  A    between atoms: _184  and  _185
REMARK   82  A    between atoms: _185  and  _186
REMARK   83  A    between atoms: _190  and  _192
REMARK   84  A    between atoms: _192  and  _193
REMARK   85  A    between atoms: _192  and  _195
REMARK   86  A    between atoms: _195  and  _196
REMARK   87  A    between atoms: _196  and  _197
REMARK   88  A    between atoms: _200  and  _202
REMARK   89  A    between atoms: _202  and  _203
REMARK   90  A    between atoms: _202  and  _205
REMARK   91  A    between atoms: _205  and  _206
REMARK   92  A    between atoms: _206  and  _207
REMARK   93  A    between atoms: _210  and  _212
REMARK   94  A    between atoms: _212  and  _213
REMARK   95  A    between atoms: _212  and  _215
REMARK   96  A    between atoms: _215  and  _216
REMARK   97  A    between atoms: _216  and  _217
REMARK   98  A    between atoms: _219  and  _221
REMARK   99  A    between atoms: _224  and  _225
REMARK  100  A    between atoms: _228  and  _230
REMARK  101  A    between atoms: _230  and  _231
REMARK  102  A    between atoms: _230  and  _233
REMARK  103  A    between atoms: _233  and  _234
REMARK  104  A    between atoms: _234  and  _235
REMARK  105  A    between atoms: _238  and  _240
REMARK  106  A    between atoms: _240  and  _241
REMARK  107  A    between atoms: _240  and  _243
REMARK  108  A    between atoms: _245  and  _247
REMARK  109  A    between atoms: _247  and  _248
REMARK  110  A    between atoms: _247  and  _250
REMARK  111  A    between atoms: _250  and  _251
REMARK  112  A    between atoms: _253  and  _255
REMARK  113  A    between atoms: _255  and  _256
REMARK  114  A    between atoms: _258  and  _260
REMARK  115  A    between atoms: _260  and  _261
REMARK  116  A    between atoms: _260  and  _263
REMARK  117  A    between atoms: _263  and  _264
REMARK  118  A    between atoms: _267  and  _269
REMARK  119  A    between atoms: _269  and  _270
REMARK  120  A    between atoms: _269  and  _272
REMARK  121  A    between atoms: _272  and  _273
REMARK  122  A    between atoms: _278  and  _279
REMARK  123  A    between atoms: _281  and  _283
REMARK  124  A    between atoms: _283  and  _284
REMARK  125  A    between atoms: _283  and  _286
REMARK  126  A    between atoms: _286  and  _287
REMARK  127  A    between atoms: _289  and  _291
REMARK  128  A    between atoms: _291  and  _292
REMARK  129  A    between atoms: _291  and  _294
REMARK  130  A    between atoms: _294  and  _295
REMARK  131  A    between atoms: _298  and  _300
REMARK  132  A    between atoms: _300  and  _301
REMARK  133  A    between atoms: _300  and  _303
REMARK  134  A    between atoms: _303  and  _304
REMARK  135  A    between atoms: _306  and  _308
REMARK  136  A    between atoms: _308  and  _309
REMARK  137  A    between atoms: _308  and  _311
REMARK  138  A    between atoms: _311  and  _312
REMARK  139  A    between atoms: _317  and  _319
REMARK  140  A    between atoms: _319  and  _320
REMARK  141  A    between atoms: _319  and  _322
REMARK  142  A    between atoms: _322  and  _323
REMARK  143  A    between atoms: _326  and  _328
REMARK  144  A    between atoms: _328  and  _329
REMARK  145  A    between atoms: _328  and  _331
REMARK  146  A    between atoms: _331  and  _332
REMARK  147  A    between atoms: _332  and  _333
REMARK  148  A    between atoms: _336  and  _338
REMARK  149  A    between atoms: _338  and  _339
REMARK  150  A    between atoms: _338  and  _341
REMARK  151  A    between atoms: _341  and  _342
REMARK  152  A    between atoms: _342  and  _343
REMARK  153  A    between atoms: _343  and  _344
REMARK  154  A    between atoms: _353  and  _355
REMARK  155  A    between atoms: _355  and  _356
REMARK  156  A    between atoms: _355  and  _358
REMARK  157  A    between atoms: _358  and  _359
REMARK  158  A    between atoms: _362  and  _364
REMARK  159  A    between atoms: _364  and  _365
REMARK  160  A    between atoms: _364  and  _367
REMARK  161  A    between atoms: _367  and  _368
REMARK  162  A    between atoms: _373  and  _375
REMARK  163  A    between atoms: _375  and  _376
REMARK  164  A    between atoms: _375  and  _378
REMARK  165  A    between atoms: _378  and  _379
REMARK  166  A    between atoms: _379  and  _380
REMARK  167  A    between atoms: _380  and  _381
REMARK  168  A    between atoms: _381  and  _382
REMARK  169  A    between atoms: _386  and  _388
REMARK  170  A    between atoms: _388  and  _389
REMARK  171  A    between atoms: _388  and  _391
REMARK  172  A    between atoms: _391  and  _392
REMARK                            x       y       z     vdW  Elec       q    Type
REMARK                         _______ _______ _______ _____ _____    ______ ____
ROOT
ATOM      1  CG  LYS A   1     -24.485  16.514 -20.264  0.00  0.00    -0.000 C 
ENDROOT
BRANCH   1   2
ATOM      2  CB  LYS A   1     -24.028  15.697 -21.463  0.00  0.00    +0.025 C 
BRANCH   2   3
ATOM      3  CA  LYS A   1     -23.023  14.588 -21.129  0.00  0.00    +0.133 C 
BRANCH   3   4
ATOM      4  N   LYS A   1     -21.833  15.154 -20.508  0.00  0.00    -0.239 NA
ATOM      5  H   LYS A   1     -21.083  15.553 -21.108  0.00  0.00    +0.142 HD
ENDBRANCH   3   4
BRANCH   3   6
ATOM      6  C   LYS A   1     -22.721  13.796 -22.392  0.00  0.00    +0.224 C 
ATOM      7  O   LYS A   1     -21.967  14.248 -23.261  0.00  0.00    -0.287 OA
ENDBRANCH   3   6
ENDBRANCH   2   3
ENDBRANCH   1   2
BRANCH   1   8
ATOM      8  CD  LYS A   1     -25.088  15.634 -19.182  0.00  0.00    -0.024 C 
BRANCH   8   9
ATOM      9  CE  LYS A   1     -25.360  16.429 -17.915  0.00  0.00    -0.086 C 
BRANCH   9  10
ATOM     10  NZ  LYS A   1     -25.664  15.540 -16.763  0.00  0.00    +0.380 N 
ATOM     11  HZ1 LYS A   1     -25.844  16.119 -15.918  0.00  0.00    -0.089 HD
ATOM     12  HZ2 LYS A   1     -24.854  14.912 -16.588  0.00  0.00    -0.089 HD
ATOM     13  HZ3 LYS A   1     -26.506  14.970 -16.980  0.00  0.00    -0.089 HD
ENDBRANCH   9  10
ENDBRANCH   8   9
ENDBRANCH   1   8
TORSDOF 7
REMARK  Name = ../refined-set-2016/3c2o/3c2o_pocket.pdb
REMARK  172 active torsions:
REMARK  status: ('A' for Active; 'I' for Inactive)
REMARK    1  A    between atoms: _1  and  _3
REMARK    2  A    between atoms: _3  and  _4
REMARK    3  A    between atoms: _7  and  _9
REMARK    4  A    between atoms: _9  and  _10
REMARK    5  A    between atoms: _12  and  _14
REMARK    6  A    between atoms: _14  and  _15
REMARK    7  A    between atoms: _14  and  _17
REMARK    8  A    between atoms: _17  and  _18
REMARK    9  A    between atoms: _21  and  _23
REMARK   10  A    between atoms: _23  and  _24
REMARK   11  A    between atoms: _23  and  _26
REMARK   12  A    between atoms: _26  and  _27
REMARK   13  A    between atoms: _27  and  _28
REMARK   14  A    between atoms: _28  and  _29
REMARK   15  A    between atoms: _38  and  _40
REMARK   16  A    between atoms: _40  and  _41
REMARK   17  A    between atoms: _40  and  _43
REMARK   18  A    between atoms: _43  and  _44
REMARK   19  A    between atoms: _44  and  _45
REMARK   20  A    between atoms: _45  and  _46
REMARK   21  A    between atoms: _46  and  _47
REMARK   22  A    between atoms: _51  and  _53
REMARK   23  A    between atoms: _53  and  _54
REMARK   24  A    between atoms: _53  and  _56
REMARK   25  A    between atoms: _56  and  _57
REMARK   26  A    between atoms: _60  and  _62
REMARK   27  A    between atoms: _62  and  _63
REMARK   28  A    between atoms: _62  and  _65
REMARK   29  A    between atoms: _65  and  _66
REMARK   30  A    between atoms: _66  and  _67
REMARK   31  A    between atoms: _67  and  _68
REMARK   32  A    between atoms: _77  and  _79
REMARK   33  A    between atoms: _79  and  _80
REMARK   34  A    between atoms: _79  and  _82
REMARK   35  A    between atoms: _82  and  _83
REMARK   36  A    between atoms: _83  and  _84
REMARK   37  A    between atoms: _84  and  _85
REMARK   38  A    between atoms: _85  and  _86
REMARK   39  A    between atoms: _90  and  _92
REMARK   40  A    between atoms: _92  and  _93
REMARK   41  A    between atoms: _92  and  _95
REMARK   42  A    between atoms: _95  and  _96
REMARK   43  A    between atoms: _99  and  _101
REMARK   44  A    between atoms: _101  and  _102
REMARK   45  A    between atoms: _101  and  _104
REMARK   46  A    between atoms: _104  and  _105
REMARK   47  A    between atoms: _110  and  _112
REMARK   48  A    between atoms: _112  and  _113
REMARK   49  A    between atoms: _112  and  _115
REMARK   50  A    between atoms: _115  and  _116
REMARK   51  A    between atoms: _116  and  _117
REMARK   52  A    between atoms: _117  and  _118
REMARK   53  A    between atoms: _127  and  _129
REMARK   54  A    between atoms: _129  and  _130
REMARK   55  A    between atoms: _129  and  _132
REMARK   56  A    between atoms: _132  and  _133
REMARK   57  A    between atoms: _138  and  _139
REMARK   58  A    between atoms: _141  and  _143
REMARK   59  A    between atoms: _143  and  _144
REMARK   60  A    between atoms: _143  and  _146
REMARK   61  A    between atoms: _146  and  _147
REMARK   62  A    between atoms: _150  and  _152
REMARK   63  A    between atoms: _152  and  _153
REMARK   64  A    between atoms: _152  and  _155
REMARK   65  A    between atoms: _155  and  _156
REMARK   66  A    between atoms: _159  and  _161
REMARK   67  A    between atoms: _161  and  _162
REMARK   68  A    between atoms: _161  and  _164
REMARK   69  A    between atoms: _164  and  _165
REMARK   70  A    between atoms: _165  and  _166
REMARK   71  A    between atoms: _168  and  _170
REMARK   72  A    between atoms: _170  and  _171
REMARK   73  A    between atoms: _170  and  _173
REMARK   74  A    between atoms: _173  and  _174
REMARK   75  A    between atoms: _174  and  _175
REMARK   76  A    between atoms: _177  and  _179
REMARK   77  A    between atoms: _179  and  _180
REMARK   78  A    between atoms: _179  and  _182
REMARK   79  A    between atoms: _182  and  _183
REMARK   80  A    between atoms: _183  and  _184
REMARK   81  A    between atoms: _184  and  _185
REMARK   82  A    between atoms: _185  and  _186
REMARK   83  A    between atoms: _190  and  _192
REMARK   84  A    between atoms: _192  and  _193
REMARK   85  A    between atoms: _192  and  _195
REMARK   86  A    between atoms: _195  and  _196
REMARK   87  A    between atoms: _196  and  _197
REMARK   88  A    between atoms: _200  and  _202
REMARK   89  A    between atoms: _202  and  _203
REMARK   90  A    between atoms: _202  and  _205
REMARK   91  A    between atoms: _205  and  _206
REMARK   92  A    between atoms: _206  and  _207
REMARK   93  A    between atoms: _210  and  _212
REMARK   94  A    between atoms: _212  and  _213
REMARK   95  A    between atoms: _212  and  _215
REMARK   96  A    between atoms: _215  and  _216
REMARK   97  A    between atoms: _216  and  _217
REMARK   98  A    between atoms: _219  and  _221
REMARK   99  A    between atoms: _224  and  _225
REMARK  100  A    between atoms: _228  and  _230
REMARK  101  A    between atoms: _230  and  _231
REMARK  102  A    between atoms: _230  and  _233
REMARK  103  A    between atoms: _233  and  _234
REMARK  104  A    between atoms: _234  and  _235
REMARK  105  A    between atoms: _238  and  _240
REMARK  106  A    between atoms: _240  and  _241
REMARK  107  A    between atoms: _240  and  _243
REMARK  108  A    between atoms: _245  and  _247
REMARK  109  A    between atoms: _247  and  _248
REMARK  110  A    between atoms: _247  and  _250
REMARK  111  A    between atoms: _250  and  _251
REMARK  112  A    between atoms: _253  and  _255
REMARK  113  A    between atoms: _255  and  _256
REMARK  114  A    between atoms: _258  and  _260
REMARK  115  A    between atoms: _260  and  _261
REMARK  116  A    between atoms: _260  and  _263
REMARK  117  A    between atoms: _263  and  _264
REMARK  118  A    between atoms: _267  and  _269
REMARK  119  A    between atoms: _269  and  _270
REMARK  120  A    between atoms: _269  and  _272
REMARK  121  A    between atoms: _272  and  _273
REMARK  122  A    between atoms: _278  and  _279
REMARK  123  A    between atoms: _281  and  _283
REMARK  124  A    between atoms: _283  and  _284
REMARK  125  A    between atoms: _283  and  _286
REMARK  126  A    between atoms: _286  and  _287
REMARK  127  A    between atoms: _289  and  _291
REMARK  128  A    between atoms: _291  and  _292
REMARK  129  A    between atoms: _291  and  _294
REMARK  130  A    between atoms: _294  and  _295
REMARK  131  A    between atoms: _298  and  _300
REMARK  132  A    between atoms: _300  and  _301
REMARK  133  A    between atoms: _300  and  _303
REMARK  134  A    between atoms: _303  and  _304
REMARK  135  A    between atoms: _306  and  _308
REMARK  136  A    between atoms: _308  and  _309
REMARK  137  A    between atoms: _308  and  _311
REMARK  138  A    between atoms: _311  and  _312
REMARK  139  A    between atoms: _317  and  _319
REMARK  140  A    between atoms: _319  and  _320
REMARK  141  A    between atoms: _319  and  _322
REMARK  142  A    between atoms: _322  and  _323
REMARK  143  A    between atoms: _326  and  _328
REMARK  144  A    between atoms: _328  and  _329
REMARK  145  A    between atoms: _328  and  _331
REMARK  146  A    between atoms: _331  and  _332
REMARK  147  A    between atoms: _332  and  _333
REMARK  148  A    between atoms: _336  and  _338
REMARK  149  A    between atoms: _338  and  _339
REMARK  150  A    between atoms: _338  and  _341
REMARK  151  A    between atoms: _341  and  _342
REMARK  152  A    between atoms: _342  and  _343
REMARK  153  A    between atoms: _343  and  _344
REMARK  154  A    between atoms: _353  and  _355
REMARK  155  A    between atoms: _355  and  _356
REMARK  156  A    between atoms: _355  and  _358
REMARK  157  A    between atoms: _358  and  _359
REMARK  158  A    between atoms: _362  and  _364
REMARK  159  A    between atoms: _364  and  _365
REMARK  160  A    between atoms: _364  and  _367
REMARK  161  A    between atoms: _367  and  _368
REMARK  162  A    between atoms: _373  and  _375
REMARK  163  A    between atoms: _375  and  _376
REMARK  164  A    between atoms: _375  and  _378
REMARK  165  A    between atoms: _378  and  _379
REMARK  166  A    between atoms: _379  and  _380
REMARK  167  A    between atoms: _380  and  _381
REMARK  168  A    between atoms: _381  and  _382
REMARK  169  A    between atoms: _386  and  _388
REMARK  170  A    between atoms: _388  and  _389
REMARK  171  A    between atoms: _388  and  _391
REMARK  172  A    between atoms: _391  and  _392
REMARK                            x       y       z     vdW  Elec       q    Type
REMARK                         _______ _______ _______ _____ _____    ______ ____
ROOT
ATOM      1  CB  PHE A   1     -34.006   7.913   2.171  0.00  0.00    +0.051 C 
ENDROOT
BRANCH   1   2
ATOM      2  CG  PHE A   1     -33.245   8.613   1.073  0.00  0.00    -0.020 A 
ATOM      3  CD2 PHE A   1     -32.409   9.688   1.359  0.00  0.00    -0.004 A 
ATOM      4  CE2 PHE A   1     -31.667  10.297   0.351  0.00  0.00    -0.000 A 
ATOM      5  CZ  PHE A   1     -31.759   9.829  -0.966  0.00  0.00    -0.000 A 
ATOM      6  CE1 PHE A   1     -32.590   8.761  -1.262  0.00  0.00    -0.000 A 
ATOM      7  CD1 PHE A   1     -33.329   8.159  -0.245  0.00  0.00    -0.004 A 
ENDBRANCH   1   2
BRANCH   1   8
ATOM      8  CA  PHE A   1     -33.193   6.834   2.892  0.00  0.00    +0.137 C 
BRANCH   8   9
ATOM      9  N   PHE A   1     -32.248   7.453   3.811  0.00  0.00    -0.239 NA
ATOM     10  H   PHE A   1     -31.970   8.444   3.661  0.00  0.00    +0.142 HD
ENDBRANCH   8   9
BRANCH   8  11
ATOM     11  C   PHE A   1     -32.572   5.913   1.843  0.00  0.00    +0.224 C 
ATOM     12  O   PHE A   1     -33.209   4.956   1.397  0.00  0.00    -0.287 OA
ENDBRANCH   8  11
ENDBRANCH   1   8
TORSDOF 4
REMARK  Name = ../refined-set-2016/3c2o/3c2o_pocket.pdb
REMARK  172 active torsions:
REMARK  status: ('A' for Active; 'I' for Inactive)
REMARK    1  A    between atoms: _1  and  _3
REMARK    2  A    between atoms: _3  and  _4
REMARK    3  A    between atoms: _7  and  _9
REMARK    4  A    between atoms: _9  and  _10
REMARK    5  A    between atoms: _12  and  _14
REMARK    6  A    between atoms: _14  and  _15
REMARK    7  A    between atoms: _14  and  _17
REMARK    8  A    between atoms: _17  and  _18
REMARK    9  A    between atoms: _21  and  _23
REMARK   10  A    between atoms: _23  and  _24
REMARK   11  A    between atoms: _23  and  _26
REMARK   12  A    between atoms: _26  and  _27
REMARK   13  A    between atoms: _27  and  _28
REMARK   14  A    between atoms: _28  and  _29
REMARK   15  A    between atoms: _38  and  _40
REMARK   16  A    between atoms: _40  and  _41
REMARK   17  A    between atoms: _40  and  _43
REMARK   18  A    between atoms: _43  and  _44
REMARK   19  A    between atoms: _44  and  _45
REMARK   20  A    between atoms: _45  and  _46
REMARK   21  A    between atoms: _46  and  _47
REMARK   22  A    between atoms: _51  and  _53
REMARK   23  A    between atoms: _53  and  _54
REMARK   24  A    between atoms: _53  and  _56
REMARK   25  A    between atoms: _56  and  _57
REMARK   26  A    between atoms: _60  and  _62
REMARK   27  A    between atoms: _62  and  _63
REMARK   28  A    between atoms: _62  and  _65
REMARK   29  A    between atoms: _65  and  _66
REMARK   30  A    between atoms: _66  and  _67
REMARK   31  A    between atoms: _67  and  _68
REMARK   32  A    between atoms: _77  and  _79
REMARK   33  A    between atoms: _79  and  _80
REMARK   34  A    between atoms: _79  and  _82
REMARK   35  A    between atoms: _82  and  _83
REMARK   36  A    between atoms: _83  and  _84
REMARK   37  A    between atoms: _84  and  _85
REMARK   38  A    between atoms: _85  and  _86
REMARK   39  A    between atoms: _90  and  _92
REMARK   40  A    between atoms: _92  and  _93
REMARK   41  A    between atoms: _92  and  _95
REMARK   42  A    between atoms: _95  and  _96
REMARK   43  A    between atoms: _99  and  _101
REMARK   44  A    between atoms: _101  and  _102
REMARK   45  A    between atoms: _101  and  _104
REMARK   46  A    between atoms: _104  and  _105
REMARK   47  A    between atoms: _110  and  _112
REMARK   48  A    between atoms: _112  and  _113
REMARK   49  A    between atoms: _112  and  _115
REMARK   50  A    between atoms: _115  and  _116
REMARK   51  A    between atoms: _116  and  _117
REMARK   52  A    between atoms: _117  and  _118
REMARK   53  A    between atoms: _127  and  _129
REMARK   54  A    between atoms: _129  and  _130
REMARK   55  A    between atoms: _129  and  _132
REMARK   56  A    between atoms: _132  and  _133
REMARK   57  A    between atoms: _138  and  _139
REMARK   58  A    between atoms: _141  and  _143
REMARK   59  A    between atoms: _143  and  _144
REMARK   60  A    between atoms: _143  and  _146
REMARK   61  A    between atoms: _146  and  _147
REMARK   62  A    between atoms: _150  and  _152
REMARK   63  A    between atoms: _152  and  _153
REMARK   64  A    between atoms: _152  and  _155
REMARK   65  A    between atoms: _155  and  _156
REMARK   66  A    between atoms: _159  and  _161
REMARK   67  A    between atoms: _161  and  _162
REMARK   68  A    between atoms: _161  and  _164
REMARK   69  A    between atoms: _164  and  _165
REMARK   70  A    between atoms: _165  and  _166
REMARK   71  A    between atoms: _168  and  _170
REMARK   72  A    between atoms: _170  and  _171
REMARK   73  A    between atoms: _170  and  _173
REMARK   74  A    between atoms: _173  and  _174
REMARK   75  A    between atoms: _174  and  _175
REMARK   76  A    between atoms: _177  and  _179
REMARK   77  A    between atoms: _179  and  _180
REMARK   78  A    between atoms: _179  and  _182
REMARK   79  A    between atoms: _182  and  _183
REMARK   80  A    between atoms: _183  and  _184
REMARK   81  A    between atoms: _184  and  _185
REMARK   82  A    between atoms: _185  and  _186
REMARK   83  A    between atoms: _190  and  _192
REMARK   84  A    between atoms: _192  and  _193
REMARK   85  A    between atoms: _192  and  _195
REMARK   86  A    between atoms: _195  and  _196
REMARK   87  A    between atoms: _196  and  _197
REMARK   88  A    between atoms: _200  and  _202
REMARK   89  A    between atoms: _202  and  _203
REMARK   90  A    between atoms: _202  and  _205
REMARK   91  A    between atoms: _205  and  _206
REMARK   92  A    between atoms: _206  and  _207
REMARK   93  A    between atoms: _210  and  _212
REMARK   94  A    between atoms: _212  and  _213
REMARK   95  A    between atoms: _212  and  _215
REMARK   96  A    between atoms: _215  and  _216
REMARK   97  A    between atoms: _216  and  _217
REMARK   98  A    between atoms: _219  and  _221
REMARK   99  A    between atoms: _224  and  _225
REMARK  100  A    between atoms: _228  and  _230
REMARK  101  A    between atoms: _230  and  _231
REMARK  102  A    between atoms: _230  and  _233
REMARK  103  A    between atoms: _233  and  _234
REMARK  104  A    between atoms: _234  and  _235
REMARK  105  A    between atoms: _238  and  _240
REMARK  106  A    between atoms: _240  and  _241
REMARK  107  A    between atoms: _240  and  _243
REMARK  108  A    between atoms: _245  and  _247
REMARK  109  A    between atoms: _247  and  _248
REMARK  110  A    between atoms: _247  and  _250
REMARK  111  A    between atoms: _250  and  _251
REMARK  112  A    between atoms: _253  and  _255
REMARK  113  A    between atoms: _255  and  _256
REMARK  114  A    between atoms: _258  and  _260
REMARK  115  A    between atoms: _260  and  _261
REMARK  116  A    between atoms: _260  and  _263
REMARK  117  A    between atoms: _263  and  _264
REMARK  118  A    between atoms: _267  and  _269
REMARK  119  A    between atoms: _269  and  _270
REMARK  120  A    between atoms: _269  and  _272
REMARK  121  A    between atoms: _272  and  _273
REMARK  122  A    between atoms: _278  and  _279
REMARK  123  A    between atoms: _281  and  _283
REMARK  124  A    between atoms: _283  and  _284
REMARK  125  A    between atoms: _283  and  _286
REMARK  126  A    between atoms: _286  and  _287
REMARK  127  A    between atoms: _289  and  _291
REMARK  128  A    between atoms: _291  and  _292
REMARK  129  A    between atoms: _291  and  _294
REMARK  130  A    between atoms: _294  and  _295
REMARK  131  A    between atoms: _298  and  _300
REMARK  132  A    between atoms: _300  and  _301
REMARK  133  A    between atoms: _300  and  _303
REMARK  134  A    between atoms: _303  and  _304
REMARK  135  A    between atoms: _306  and  _308
REMARK  136  A    between atoms: _308  and  _309
REMARK  137  A    between atoms: _308  and  _311
REMARK  138  A    between atoms: _311  and  _312
REMARK  139  A    between atoms: _317  and  _319
REMARK  140  A    between atoms: _319  and  _320
REMARK  141  A    between atoms: _319  and  _322
REMARK  142  A    between atoms: _322  and  _323
REMARK  143  A    between atoms: _326  and  _328
REMARK  144  A    between atoms: _328  and  _329
REMARK  145  A    between atoms: _328  and  _331
REMARK  146  A    between atoms: _331  and  _332
REMARK  147  A    between atoms: _332  and  _333
REMARK  148  A    between atoms: _336  and  _338
REMARK  149  A    between atoms: _338  and  _339
REMARK  150  A    between atoms: _338  and  _341
REMARK  151  A    between atoms: _341  and  _342
REMARK  152  A    between atoms: _342  and  _343
REMARK  153  A    between atoms: _343  and  _344
REMARK  154  A    between atoms: _353  and  _355
REMARK  155  A    between atoms: _355  and  _356
REMARK  156  A    between atoms: _355  and  _358
REMARK  157  A    between atoms: _358  and  _359
REMARK  158  A    between atoms: _362  and  _364
REMARK  159  A    between atoms: _364  and  _365
REMARK  160  A    between atoms: _364  and  _367
REMARK  161  A    between atoms: _367  and  _368
REMARK  162  A    between atoms: _373  and  _375
REMARK  163  A    between atoms: _375  and  _376
REMARK  164  A    between atoms: _375  and  _378
REMARK  165  A    between atoms: _378  and  _379
REMARK  166  A    between atoms: _379  and  _380
REMARK  167  A    between atoms: _380  and  _381
REMARK  168  A    between atoms: _381  and  _382
REMARK  169  A    between atoms: _386  and  _388
REMARK  170  A    between atoms: _388  and  _389
REMARK  171  A    between atoms: _388  and  _391
REMARK  172  A    between atoms: _391  and  _392
REMARK                            x       y       z     vdW  Elec       q    Type
REMARK                         _______ _______ _______ _____ _____    ______ ____
ROOT
ATOM      1  O   HOH     1     -24.340  10.904  -2.676  0.00  0.00    +0.000 OA
ENDROOT
TORSDOF 0
REMARK  Name = ../refined-set-2016/3c2o/3c2o_pocket.pdb
REMARK  172 active torsions:
REMARK  status: ('A' for Active; 'I' for Inactive)
REMARK    1  A    between atoms: _1  and  _3
REMARK    2  A    between atoms: _3  and  _4
REMARK    3  A    between atoms: _7  and  _9
REMARK    4  A    between atoms: _9  and  _10
REMARK    5  A    between atoms: _12  and  _14
REMARK    6  A    between atoms: _14  and  _15
REMARK    7  A    between atoms: _14  and  _17
REMARK    8  A    between atoms: _17  and  _18
REMARK    9  A    between atoms: _21  and  _23
REMARK   10  A    between atoms: _23  and  _24
REMARK   11  A    between atoms: _23  and  _26
REMARK   12  A    between atoms: _26  and  _27
REMARK   13  A    between atoms: _27  and  _28
REMARK   14  A    between atoms: _28  and  _29
REMARK   15  A    between atoms: _38  and  _40
REMARK   16  A    between atoms: _40  and  _41
REMARK   17  A    between atoms: _40  and  _43
REMARK   18  A    between atoms: _43  and  _44
REMARK   19  A    between atoms: _44  and  _45
REMARK   20  A    between atoms: _45  and  _46
REMARK   21  A    between atoms: _46  and  _47
REMARK   22  A    between atoms: _51  and  _53
REMARK   23  A    between atoms: _53  and  _54
REMARK   24  A    between atoms: _53  and  _56
REMARK   25  A    between atoms: _56  and  _57
REMARK   26  A    between atoms: _60  and  _62
REMARK   27  A    between atoms: _62  and  _63
REMARK   28  A    between atoms: _62  and  _65
REMARK   29  A    between atoms: _65  and  _66
REMARK   30  A    between atoms: _66  and  _67
REMARK   31  A    between atoms: _67  and  _68
REMARK   32  A    between atoms: _77  and  _79
REMARK   33  A    between atoms: _79  and  _80
REMARK   34  A    between atoms: _79  and  _82
REMARK   35  A    between atoms: _82  and  _83
REMARK   36  A    between atoms: _83  and  _84
REMARK   37  A    between atoms: _84  and  _85
REMARK   38  A    between atoms: _85  and  _86
REMARK   39  A    between atoms: _90  and  _92
REMARK   40  A    between atoms: _92  and  _93
REMARK   41  A    between atoms: _92  and  _95
REMARK   42  A    between atoms: _95  and  _96
REMARK   43  A    between atoms: _99  and  _101
REMARK   44  A    between atoms: _101  and  _102
REMARK   45  A    between atoms: _101  and  _104
REMARK   46  A    between atoms: _104  and  _105
REMARK   47  A    between atoms: _110  and  _112
REMARK   48  A    between atoms: _112  and  _113
REMARK   49  A    between atoms: _112  and  _115
REMARK   50  A    between atoms: _115  and  _116
REMARK   51  A    between atoms: _116  and  _117
REMARK   52  A    between atoms: _117  and  _118
REMARK   53  A    between atoms: _127  and  _129
REMARK   54  A    between atoms: _129  and  _130
REMARK   55  A    between atoms: _129  and  _132
REMARK   56  A    between atoms: _132  and  _133
REMARK   57  A    between atoms: _138  and  _139
REMARK   58  A    between atoms: _141  and  _143
REMARK   59  A    between atoms: _143  and  _144
REMARK   60  A    between atoms: _143  and  _146
REMARK   61  A    between atoms: _146  and  _147
REMARK   62  A    between atoms: _150  and  _152
REMARK   63  A    between atoms: _152  and  _153
REMARK   64  A    between atoms: _152  and  _155
REMARK   65  A    between atoms: _155  and  _156
REMARK   66  A    between atoms: _159  and  _161
REMARK   67  A    between atoms: _161  and  _162
REMARK   68  A    between atoms: _161  and  _164
REMARK   69  A    between atoms: _164  and  _165
REMARK   70  A    between atoms: _165  and  _166
REMARK   71  A    between atoms: _168  and  _170
REMARK   72  A    between atoms: _170  and  _171
REMARK   73  A    between atoms: _170  and  _173
REMARK   74  A    between atoms: _173  and  _174
REMARK   75  A    between atoms: _174  and  _175
REMARK   76  A    between atoms: _177  and  _179
REMARK   77  A    between atoms: _179  and  _180
REMARK   78  A    between atoms: _179  and  _182
REMARK   79  A    between atoms: _182  and  _183
REMARK   80  A    between atoms: _183  and  _184
REMARK   81  A    between atoms: _184  and  _185
REMARK   82  A    between atoms: _185  and  _186
REMARK   83  A    between atoms: _190  and  _192
REMARK   84  A    between atoms: _192  and  _193
REMARK   85  A    between atoms: _192  and  _195
REMARK   86  A    between atoms: _195  and  _196
REMARK   87  A    between atoms: _196  and  _197
REMARK   88  A    between atoms: _200  and  _202
REMARK   89  A    between atoms: _202  and  _203
REMARK   90  A    between atoms: _202  and  _205
REMARK   91  A    between atoms: _205  and  _206
REMARK   92  A    between atoms: _206  and  _207
REMARK   93  A    between atoms: _210  and  _212
REMARK   94  A    between atoms: _212  and  _213
REMARK   95  A    between atoms: _212  and  _215
REMARK   96  A    between atoms: _215  and  _216
REMARK   97  A    between atoms: _216  and  _217
REMARK   98  A    between atoms: _219  and  _221
REMARK   99  A    between atoms: _224  and  _225
REMARK  100  A    between atoms: _228  and  _230
REMARK  101  A    between atoms: _230  and  _231
REMARK  102  A    between atoms: _230  and  _233
REMARK  103  A    between atoms: _233  and  _234
REMARK  104  A    between atoms: _234  and  _235
REMARK  105  A    between atoms: _238  and  _240
REMARK  106  A    between atoms: _240  and  _241
REMARK  107  A    between atoms: _240  and  _243
REMARK  108  A    between atoms: _245  and  _247
REMARK  109  A    between atoms: _247  and  _248
REMARK  110  A    between atoms: _247  and  _250
REMARK  111  A    between atoms: _250  and  _251
REMARK  112  A    between atoms: _253  and  _255
REMARK  113  A    between atoms: _255  and  _256
REMARK  114  A    between atoms: _258  and  _260
REMARK  115  A    between atoms: _260  and  _261
REMARK  116  A    between atoms: _260  and  _263
REMARK  117  A    between atoms: _263  and  _264
REMARK  118  A    between atoms: _267  and  _269
REMARK  119  A    between atoms: _269  and  _270
REMARK  120  A    between atoms: _269  and  _272
REMARK  121  A    between atoms: _272  and  _273
REMARK  122  A    between atoms: _278  and  _279
REMARK  123  A    between atoms: _281  and  _283
REMARK  124  A    between atoms: _283  and  _284
REMARK  125  A    between atoms: _283  and  _286
REMARK  126  A    between atoms: _286  and  _287
REMARK  127  A    between atoms: _289  and  _291
REMARK  128  A    between atoms: _291  and  _292
REMARK  129  A    between atoms: _291  and  _294
REMARK  130  A    between atoms: _294  and  _295
REMARK  131  A    between atoms: _298  and  _300
REMARK  132  A    between atoms: _300  and  _301
REMARK  133  A    between atoms: _300  and  _303
REMARK  134  A    between atoms: _303  and  _304
REMARK  135  A    between atoms: _306  and  _308
REMARK  136  A    between atoms: _308  and  _309
REMARK  137  A    between atoms: _308  and  _311
REMARK  138  A    between atoms: _311  and  _312
REMARK  139  A    between atoms: _317  and  _319
REMARK  140  A    between atoms: _319  and  _320
REMARK  141  A    between atoms: _319  and  _322
REMARK  142  A    between atoms: _322  and  _323
REMARK  143  A    between atoms: _326  and  _328
REMARK  144  A    between atoms: _328  and  _329
REMARK  145  A    between atoms: _328  and  _331
REMARK  146  A    between atoms: _331  and  _332
REMARK  147  A    between atoms: _332  and  _333
REMARK  148  A    between atoms: _336  and  _338
REMARK  149  A    between atoms: _338  and  _339
REMARK  150  A    between atoms: _338  and  _341
REMARK  151  A    between atoms: _341  and  _342
REMARK  152  A    between atoms: _342  and  _343
REMARK  153  A    between atoms: _343  and  _344
REMARK  154  A    between atoms: _353  and  _355
REMARK  155  A    between atoms: _355  and  _356
REMARK  156  A    between atoms: _355  and  _358
REMARK  157  A    between atoms: _358  and  _359
REMARK  158  A    between atoms: _362  and  _364
REMARK  159  A    between atoms: _364  and  _365
REMARK  160  A    between atoms: _364  and  _367
REMARK  161  A    between atoms: _367  and  _368
REMARK  162  A    between atoms: _373  and  _375
REMARK  163  A    between atoms: _375  and  _376
REMARK  164  A    between atoms: _375  and  _378
REMARK  165  A    between atoms: _378  and  _379
REMARK  166  A    between atoms: _379  and  _380
REMARK  167  A    between atoms: _380  and  _381
REMARK  168  A    between atoms: _381  and  _382
REMARK  169  A    between atoms: _386  and  _388
REMARK  170  A    between atoms: _388  and  _389
REMARK  171  A    between atoms: _388  and  _391
REMARK  172  A    between atoms: _391  and  _392
REMARK                            x       y       z     vdW  Elec       q    Type
REMARK                         _______ _______ _______ _____ _____    ______ ____
ROOT
ATOM      1  O   HOH     1     -25.407   3.813 -10.128  0.00  0.00    +0.000 OA
ENDROOT
TORSDOF 0
REMARK  Name = ../refined-set-2016/3c2o/3c2o_pocket.pdb
REMARK  172 active torsions:
REMARK  status: ('A' for Active; 'I' for Inactive)
REMARK    1  A    between atoms: _1  and  _3
REMARK    2  A    between atoms: _3  and  _4
REMARK    3  A    between atoms: _7  and  _9
REMARK    4  A    between atoms: _9  and  _10
REMARK    5  A    between atoms: _12  and  _14
REMARK    6  A    between atoms: _14  and  _15
REMARK    7  A    between atoms: _14  and  _17
REMARK    8  A    between atoms: _17  and  _18
REMARK    9  A    between atoms: _21  and  _23
REMARK   10  A    between atoms: _23  and  _24
REMARK   11  A    between atoms: _23  and  _26
REMARK   12  A    between atoms: _26  and  _27
REMARK   13  A    between atoms: _27  and  _28
REMARK   14  A    between atoms: _28  and  _29
REMARK   15  A    between atoms: _38  and  _40
REMARK   16  A    between atoms: _40  and  _41
REMARK   17  A    between atoms: _40  and  _43
REMARK   18  A    between atoms: _43  and  _44
REMARK   19  A    between atoms: _44  and  _45
REMARK   20  A    between atoms: _45  and  _46
REMARK   21  A    between atoms: _46  and  _47
REMARK   22  A    between atoms: _51  and  _53
REMARK   23  A    between atoms: _53  and  _54
REMARK   24  A    between atoms: _53  and  _56
REMARK   25  A    between atoms: _56  and  _57
REMARK   26  A    between atoms: _60  and  _62
REMARK   27  A    between atoms: _62  and  _63
REMARK   28  A    between atoms: _62  and  _65
REMARK   29  A    between atoms: _65  and  _66
REMARK   30  A    between atoms: _66  and  _67
REMARK   31  A    between atoms: _67  and  _68
REMARK   32  A    between atoms: _77  and  _79
REMARK   33  A    between atoms: _79  and  _80
REMARK   34  A    between atoms: _79  and  _82
REMARK   35  A    between atoms: _82  and  _83
REMARK   36  A    between atoms: _83  and  _84
REMARK   37  A    between atoms: _84  and  _85
REMARK   38  A    between atoms: _85  and  _86
REMARK   39  A    between atoms: _90  and  _92
REMARK   40  A    between atoms: _92  and  _93
REMARK   41  A    between atoms: _92  and  _95
REMARK   42  A    between atoms: _95  and  _96
REMARK   43  A    between atoms: _99  and  _101
REMARK   44  A    between atoms: _101  and  _102
REMARK   45  A    between atoms: _101  and  _104
REMARK   46  A    between atoms: _104  and  _105
REMARK   47  A    between atoms: _110  and  _112
REMARK   48  A    between atoms: _112  and  _113
REMARK   49  A    between atoms: _112  and  _115
REMARK   50  A    between atoms: _115  and  _116
REMARK   51  A    between atoms: _116  and  _117
REMARK   52  A    between atoms: _117  and  _118
REMARK   53  A    between atoms: _127  and  _129
REMARK   54  A    between atoms: _129  and  _130
REMARK   55  A    between atoms: _129  and  _132
REMARK   56  A    between atoms: _132  and  _133
REMARK   57  A    between atoms: _138  and  _139
REMARK   58  A    between atoms: _141  and  _143
REMARK   59  A    between atoms: _143  and  _144
REMARK   60  A    between atoms: _143  and  _146
REMARK   61  A    between atoms: _146  and  _147
REMARK   62  A    between atoms: _150  and  _152
REMARK   63  A    between atoms: _152  and  _153
REMARK   64  A    between atoms: _152  and  _155
REMARK   65  A    between atoms: _155  and  _156
REMARK   66  A    between atoms: _159  and  _161
REMARK   67  A    between atoms: _161  and  _162
REMARK   68  A    between atoms: _161  and  _164
REMARK   69  A    between atoms: _164  and  _165
REMARK   70  A    between atoms: _165  and  _166
REMARK   71  A    between atoms: _168  and  _170
REMARK   72  A    between atoms: _170  and  _171
REMARK   73  A    between atoms: _170  and  _173
REMARK   74  A    between atoms: _173  and  _174
REMARK   75  A    between atoms: _174  and  _175
REMARK   76  A    between atoms: _177  and  _179
REMARK   77  A    between atoms: _179  and  _180
REMARK   78  A    between atoms: _179  and  _182
REMARK   79  A    between atoms: _182  and  _183
REMARK   80  A    between atoms: _183  and  _184
REMARK   81  A    between atoms: _184  and  _185
REMARK   82  A    between atoms: _185  and  _186
REMARK   83  A    between atoms: _190  and  _192
REMARK   84  A    between atoms: _192  and  _193
REMARK   85  A    between atoms: _192  and  _195
REMARK   86  A    between atoms: _195  and  _196
REMARK   87  A    between atoms: _196  and  _197
REMARK   88  A    between atoms: _200  and  _202
REMARK   89  A    between atoms: _202  and  _203
REMARK   90  A    between atoms: _202  and  _205
REMARK   91  A    between atoms: _205  and  _206
REMARK   92  A    between atoms: _206  and  _207
REMARK   93  A    between atoms: _210  and  _212
REMARK   94  A    between atoms: _212  and  _213
REMARK   95  A    between atoms: _212  and  _215
REMARK   96  A    between atoms: _215  and  _216
REMARK   97  A    between atoms: _216  and  _217
REMARK   98  A    between atoms: _219  and  _221
REMARK   99  A    between atoms: _224  and  _225
REMARK  100  A    between atoms: _228  and  _230
REMARK  101  A    between atoms: _230  and  _231
REMARK  102  A    between atoms: _230  and  _233
REMARK  103  A    between atoms: _233  and  _234
REMARK  104  A    between atoms: _234  and  _235
REMARK  105  A    between atoms: _238  and  _240
REMARK  106  A    between atoms: _240  and  _241
REMARK  107  A    between atoms: _240  and  _243
REMARK  108  A    between atoms: _245  and  _247
REMARK  109  A    between atoms: _247  and  _248
REMARK  110  A    between atoms: _247  and  _250
REMARK  111  A    between atoms: _250  and  _251
REMARK  112  A    between atoms: _253  and  _255
REMARK  113  A    between atoms: _255  and  _256
REMARK  114  A    between atoms: _258  and  _260
REMARK  115  A    between atoms: _260  and  _261
REMARK  116  A    between atoms: _260  and  _263
REMARK  117  A    between atoms: _263  and  _264
REMARK  118  A    between atoms: _267  and  _269
REMARK  119  A    between atoms: _269  and  _270
REMARK  120  A    between atoms: _269  and  _272
REMARK  121  A    between atoms: _272  and  _273
REMARK  122  A    between atoms: _278  and  _279
REMARK  123  A    between atoms: _281  and  _283
REMARK  124  A    between atoms: _283  and  _284
REMARK  125  A    between atoms: _283  and  _286
REMARK  126  A    between atoms: _286  and  _287
REMARK  127  A    between atoms: _289  and  _291
REMARK  128  A    between atoms: _291  and  _292
REMARK  129  A    between atoms: _291  and  _294
REMARK  130  A    between atoms: _294  and  _295
REMARK  131  A    between atoms: _298  and  _300
REMARK  132  A    between atoms: _300  and  _301
REMARK  133  A    between atoms: _300  and  _303
REMARK  134  A    between atoms: _303  and  _304
REMARK  135  A    between atoms: _306  and  _308
REMARK  136  A    between atoms: _308  and  _309
REMARK  137  A    between atoms: _308  and  _311
REMARK  138  A    between atoms: _311  and  _312
REMARK  139  A    between atoms: _317  and  _319
REMARK  140  A    between atoms: _319  and  _320
REMARK  141  A    between atoms: _319  and  _322
REMARK  142  A    between atoms: _322  and  _323
REMARK  143  A    between atoms: _326  and  _328
REMARK  144  A    between atoms: _328  and  _329
REMARK  145  A    between atoms: _328  and  _331
REMARK  146  A    between atoms: _331  and  _332
REMARK  147  A    between atoms: _332  and  _333
REMARK  148  A    between atoms: _336  and  _338
REMARK  149  A    between atoms: _338  and  _339
REMARK  150  A    between atoms: _338  and  _341
REMARK  151  A    between atoms: _341  and  _342
REMARK  152  A    between atoms: _342  and  _343
REMARK  153  A    between atoms: _343  and  _344
REMARK  154  A    between atoms: _353  and  _355
REMARK  155  A    between atoms: _355  and  _356
REMARK  156  A    between atoms: _355  and  _358
REMARK  157  A    between atoms: _358  and  _359
REMARK  158  A    between atoms: _362  and  _364
REMARK  159  A    between atoms: _364  and  _365
REMARK  160  A    between atoms: _364  and  _367
REMARK  161  A    between atoms: _367  and  _368
REMARK  162  A    between atoms: _373  and  _375
REMARK  163  A    between atoms: _375  and  _376
REMARK  164  A    between atoms: _375  and  _378
REMARK  165  A    between atoms: _378  and  _379
REMARK  166  A    between atoms: _379  and  _380
REMARK  167  A    between atoms: _380  and  _381
REMARK  168  A    between atoms: _381  and  _382
REMARK  169  A    between atoms: _386  and  _388
REMARK  170  A    between atoms: _388  and  _389
REMARK  171  A    between atoms: _388  and  _391
REMARK  172  A    between atoms: _391  and  _392
REMARK                            x       y       z     vdW  Elec       q    Type
REMARK                         _______ _______ _______ _____ _____    ______ ____
ROOT
ATOM      1  O   HOH     1     -25.630  10.564 -10.597  0.00  0.00    +0.000 OA
ENDROOT
TORSDOF 0
REMARK  Name = ../refined-set-2016/3c2o/3c2o_pocket.pdb
REMARK  172 active torsions:
REMARK  status: ('A' for Active; 'I' for Inactive)
REMARK    1  A    between atoms: _1  and  _3
REMARK    2  A    between atoms: _3  and  _4
REMARK    3  A    between atoms: _7  and  _9
REMARK    4  A    between atoms: _9  and  _10
REMARK    5  A    between atoms: _12  and  _14
REMARK    6  A    between atoms: _14  and  _15
REMARK    7  A    between atoms: _14  and  _17
REMARK    8  A    between atoms: _17  and  _18
REMARK    9  A    between atoms: _21  and  _23
REMARK   10  A    between atoms: _23  and  _24
REMARK   11  A    between atoms: _23  and  _26
REMARK   12  A    between atoms: _26  and  _27
REMARK   13  A    between atoms: _27  and  _28
REMARK   14  A    between atoms: _28  and  _29
REMARK   15  A    between atoms: _38  and  _40
REMARK   16  A    between atoms: _40  and  _41
REMARK   17  A    between atoms: _40  and  _43
REMARK   18  A    between atoms: _43  and  _44
REMARK   19  A    between atoms: _44  and  _45
REMARK   20  A    between atoms: _45  and  _46
REMARK   21  A    between atoms: _46  and  _47
REMARK   22  A    between atoms: _51  and  _53
REMARK   23  A    between atoms: _53  and  _54
REMARK   24  A    between atoms: _53  and  _56
REMARK   25  A    between atoms: _56  and  _57
REMARK   26  A    between atoms: _60  and  _62
REMARK   27  A    between atoms: _62  and  _63
REMARK   28  A    between atoms: _62  and  _65
REMARK   29  A    between atoms: _65  and  _66
REMARK   30  A    between atoms: _66  and  _67
REMARK   31  A    between atoms: _67  and  _68
REMARK   32  A    between atoms: _77  and  _79
REMARK   33  A    between atoms: _79  and  _80
REMARK   34  A    between atoms: _79  and  _82
REMARK   35  A    between atoms: _82  and  _83
REMARK   36  A    between atoms: _83  and  _84
REMARK   37  A    between atoms: _84  and  _85
REMARK   38  A    between atoms: _85  and  _86
REMARK   39  A    between atoms: _90  and  _92
REMARK   40  A    between atoms: _92  and  _93
REMARK   41  A    between atoms: _92  and  _95
REMARK   42  A    between atoms: _95  and  _96
REMARK   43  A    between atoms: _99  and  _101
REMARK   44  A    between atoms: _101  and  _102
REMARK   45  A    between atoms: _101  and  _104
REMARK   46  A    between atoms: _104  and  _105
REMARK   47  A    between atoms: _110  and  _112
REMARK   48  A    between atoms: _112  and  _113
REMARK   49  A    between atoms: _112  and  _115
REMARK   50  A    between atoms: _115  and  _116
REMARK   51  A    between atoms: _116  and  _117
REMARK   52  A    between atoms: _117  and  _118
REMARK   53  A    between atoms: _127  and  _129
REMARK   54  A    between atoms: _129  and  _130
REMARK   55  A    between atoms: _129  and  _132
REMARK   56  A    between atoms: _132  and  _133
REMARK   57  A    between atoms: _138  and  _139
REMARK   58  A    between atoms: _141  and  _143
REMARK   59  A    between atoms: _143  and  _144
REMARK   60  A    between atoms: _143  and  _146
REMARK   61  A    between atoms: _146  and  _147
REMARK   62  A    between atoms: _150  and  _152
REMARK   63  A    between atoms: _152  and  _153
REMARK   64  A    between atoms: _152  and  _155
REMARK   65  A    between atoms: _155  and  _156
REMARK   66  A    between atoms: _159  and  _161
REMARK   67  A    between atoms: _161  and  _162
REMARK   68  A    between atoms: _161  and  _164
REMARK   69  A    between atoms: _164  and  _165
REMARK   70  A    between atoms: _165  and  _166
REMARK   71  A    between atoms: _168  and  _170
REMARK   72  A    between atoms: _170  and  _171
REMARK   73  A    between atoms: _170  and  _173
REMARK   74  A    between atoms: _173  and  _174
REMARK   75  A    between atoms: _174  and  _175
REMARK   76  A    between atoms: _177  and  _179
REMARK   77  A    between atoms: _179  and  _180
REMARK   78  A    between atoms: _179  and  _182
REMARK   79  A    between atoms: _182  and  _183
REMARK   80  A    between atoms: _183  and  _184
REMARK   81  A    between atoms: _184  and  _185
REMARK   82  A    between atoms: _185  and  _186
REMARK   83  A    between atoms: _190  and  _192
REMARK   84  A    between atoms: _192  and  _193
REMARK   85  A    between atoms: _192  and  _195
REMARK   86  A    between atoms: _195  and  _196
REMARK   87  A    between atoms: _196  and  _197
REMARK   88  A    between atoms: _200  and  _202
REMARK   89  A    between atoms: _202  and  _203
REMARK   90  A    between atoms: _202  and  _205
REMARK   91  A    between atoms: _205  and  _206
REMARK   92  A    between atoms: _206  and  _207
REMARK   93  A    between atoms: _210  and  _212
REMARK   94  A    between atoms: _212  and  _213
REMARK   95  A    between atoms: _212  and  _215
REMARK   96  A    between atoms: _215  and  _216
REMARK   97  A    between atoms: _216  and  _217
REMARK   98  A    between atoms: _219  and  _221
REMARK   99  A    between atoms: _224  and  _225
REMARK  100  A    between atoms: _228  and  _230
REMARK  101  A    between atoms: _230  and  _231
REMARK  102  A    between atoms: _230  and  _233
REMARK  103  A    between atoms: _233  and  _234
REMARK  104  A    between atoms: _234  and  _235
REMARK  105  A    between atoms: _238  and  _240
REMARK  106  A    between atoms: _240  and  _241
REMARK  107  A    between atoms: _240  and  _243
REMARK  108  A    between atoms: _245  and  _247
REMARK  109  A    between atoms: _247  and  _248
REMARK  110  A    between atoms: _247  and  _250
REMARK  111  A    between atoms: _250  and  _251
REMARK  112  A    between atoms: _253  and  _255
REMARK  113  A    between atoms: _255  and  _256
REMARK  114  A    between atoms: _258  and  _260
REMARK  115  A    between atoms: _260  and  _261
REMARK  116  A    between atoms: _260  and  _263
REMARK  117  A    between atoms: _263  and  _264
REMARK  118  A    between atoms: _267  and  _269
REMARK  119  A    between atoms: _269  and  _270
REMARK  120  A    between atoms: _269  and  _272
REMARK  121  A    between atoms: _272  and  _273
REMARK  122  A    between atoms: _278  and  _279
REMARK  123  A    between atoms: _281  and  _283
REMARK  124  A    between atoms: _283  and  _284
REMARK  125  A    between atoms: _283  and  _286
REMARK  126  A    between atoms: _286  and  _287
REMARK  127  A    between atoms: _289  and  _291
REMARK  128  A    between atoms: _291  and  _292
REMARK  129  A    between atoms: _291  and  _294
REMARK  130  A    between atoms: _294  and  _295
REMARK  131  A    between atoms: _298  and  _300
REMARK  132  A    between atoms: _300  and  _301
REMARK  133  A    between atoms: _300  and  _303
REMARK  134  A    between atoms: _303  and  _304
REMARK  135  A    between atoms: _306  and  _308
REMARK  136  A    between atoms: _308  and  _309
REMARK  137  A    between atoms: _308  and  _311
REMARK  138  A    between atoms: _311  and  _312
REMARK  139  A    between atoms: _317  and  _319
REMARK  140  A    between atoms: _319  and  _320
REMARK  141  A    between atoms: _319  and  _322
REMARK  142  A    between atoms: _322  and  _323
REMARK  143  A    between atoms: _326  and  _328
REMARK  144  A    between atoms: _328  and  _329
REMARK  145  A    between atoms: _328  and  _331
REMARK  146  A    between atoms: _331  and  _332
REMARK  147  A    between atoms: _332  and  _333
REMARK  148  A    between atoms: _336  and  _338
REMARK  149  A    between atoms: _338  and  _339
REMARK  150  A    between atoms: _338  and  _341
REMARK  151  A    between atoms: _341  and  _342
REMARK  152  A    between atoms: _342  and  _343
REMARK  153  A    between atoms: _343  and  _344
REMARK  154  A    between atoms: _353  and  _355
REMARK  155  A    between atoms: _355  and  _356
REMARK  156  A    between atoms: _355  and  _358
REMARK  157  A    between atoms: _358  and  _359
REMARK  158  A    between atoms: _362  and  _364
REMARK  159  A    between atoms: _364  and  _365
REMARK  160  A    between atoms: _364  and  _367
REMARK  161  A    between atoms: _367  and  _368
REMARK  162  A    between atoms: _373  and  _375
REMARK  163  A    between atoms: _375  and  _376
REMARK  164  A    between atoms: _375  and  _378
REMARK  165  A    between atoms: _378  and  _379
REMARK  166  A    between atoms: _379  and  _380
REMARK  167  A    between atoms: _380  and  _381
REMARK  168  A    between atoms: _381  and  _382
REMARK  169  A    between atoms: _386  and  _388
REMARK  170  A    between atoms: _388  and  _389
REMARK  171  A    between atoms: _388  and  _391
REMARK  172  A    between atoms: _391  and  _392
REMARK                            x       y       z     vdW  Elec       q    Type
REMARK                         _______ _______ _______ _____ _____    ______ ____
ROOT
ATOM      1  O   HOH     1     -19.016  19.452 -11.020  0.00  0.00    +0.000 OA
ENDROOT
TORSDOF 0
REMARK  Name = ../refined-set-2016/3c2o/3c2o_pocket.pdb
REMARK  172 active torsions:
REMARK  status: ('A' for Active; 'I' for Inactive)
REMARK    1  A    between atoms: _1  and  _3
REMARK    2  A    between atoms: _3  and  _4
REMARK    3  A    between atoms: _7  and  _9
REMARK    4  A    between atoms: _9  and  _10
REMARK    5  A    between atoms: _12  and  _14
REMARK    6  A    between atoms: _14  and  _15
REMARK    7  A    between atoms: _14  and  _17
REMARK    8  A    between atoms: _17  and  _18
REMARK    9  A    between atoms: _21  and  _23
REMARK   10  A    between atoms: _23  and  _24
REMARK   11  A    between atoms: _23  and  _26
REMARK   12  A    between atoms: _26  and  _27
REMARK   13  A    between atoms: _27  and  _28
REMARK   14  A    between atoms: _28  and  _29
REMARK   15  A    between atoms: _38  and  _40
REMARK   16  A    between atoms: _40  and  _41
REMARK   17  A    between atoms: _40  and  _43
REMARK   18  A    between atoms: _43  and  _44
REMARK   19  A    between atoms: _44  and  _45
REMARK   20  A    between atoms: _45  and  _46
REMARK   21  A    between atoms: _46  and  _47
REMARK   22  A    between atoms: _51  and  _53
REMARK   23  A    between atoms: _53  and  _54
REMARK   24  A    between atoms: _53  and  _56
REMARK   25  A    between atoms: _56  and  _57
REMARK   26  A    between atoms: _60  and  _62
REMARK   27  A    between atoms: _62  and  _63
REMARK   28  A    between atoms: _62  and  _65
REMARK   29  A    between atoms: _65  and  _66
REMARK   30  A    between atoms: _66  and  _67
REMARK   31  A    between atoms: _67  and  _68
REMARK   32  A    between atoms: _77  and  _79
REMARK   33  A    between atoms: _79  and  _80
REMARK   34  A    between atoms: _79  and  _82
REMARK   35  A    between atoms: _82  and  _83
REMARK   36  A    between atoms: _83  and  _84
REMARK   37  A    between atoms: _84  and  _85
REMARK   38  A    between atoms: _85  and  _86
REMARK   39  A    between atoms: _90  and  _92
REMARK   40  A    between atoms: _92  and  _93
REMARK   41  A    between atoms: _92  and  _95
REMARK   42  A    between atoms: _95  and  _96
REMARK   43  A    between atoms: _99  and  _101
REMARK   44  A    between atoms: _101  and  _102
REMARK   45  A    between atoms: _101  and  _104
REMARK   46  A    between atoms: _104  and  _105
REMARK   47  A    between atoms: _110  and  _112
REMARK   48  A    between atoms: _112  and  _113
REMARK   49  A    between atoms: _112  and  _115
REMARK   50  A    between atoms: _115  and  _116
REMARK   51  A    between atoms: _116  and  _117
REMARK   52  A    between atoms: _117  and  _118
REMARK   53  A    between atoms: _127  and  _129
REMARK   54  A    between atoms: _129  and  _130
REMARK   55  A    between atoms: _129  and  _132
REMARK   56  A    between atoms: _132  and  _133
REMARK   57  A    between atoms: _138  and  _139
REMARK   58  A    between atoms: _141  and  _143
REMARK   59  A    between atoms: _143  and  _144
REMARK   60  A    between atoms: _143  and  _146
REMARK   61  A    between atoms: _146  and  _147
REMARK   62  A    between atoms: _150  and  _152
REMARK   63  A    between atoms: _152  and  _153
REMARK   64  A    between atoms: _152  and  _155
REMARK   65  A    between atoms: _155  and  _156
REMARK   66  A    between atoms: _159  and  _161
REMARK   67  A    between atoms: _161  and  _162
REMARK   68  A    between atoms: _161  and  _164
REMARK   69  A    between atoms: _164  and  _165
REMARK   70  A    between atoms: _165  and  _166
REMARK   71  A    between atoms: _168  and  _170
REMARK   72  A    between atoms: _170  and  _171
REMARK   73  A    between atoms: _170  and  _173
REMARK   74  A    between atoms: _173  and  _174
REMARK   75  A    between atoms: _174  and  _175
REMARK   76  A    between atoms: _177  and  _179
REMARK   77  A    between atoms: _179  and  _180
REMARK   78  A    between atoms: _179  and  _182
REMARK   79  A    between atoms: _182  and  _183
REMARK   80  A    between atoms: _183  and  _184
REMARK   81  A    between atoms: _184  and  _185
REMARK   82  A    between atoms: _185  and  _186
REMARK   83  A    between atoms: _190  and  _192
REMARK   84  A    between atoms: _192  and  _193
REMARK   85  A    between atoms: _192  and  _195
REMARK   86  A    between atoms: _195  and  _196
REMARK   87  A    between atoms: _196  and  _197
REMARK   88  A    between atoms: _200  and  _202
REMARK   89  A    between atoms: _202  and  _203
REMARK   90  A    between atoms: _202  and  _205
REMARK   91  A    between atoms: _205  and  _206
REMARK   92  A    between atoms: _206  and  _207
REMARK   93  A    between atoms: _210  and  _212
REMARK   94  A    between atoms: _212  and  _213
REMARK   95  A    between atoms: _212  and  _215
REMARK   96  A    between atoms: _215  and  _216
REMARK   97  A    between atoms: _216  and  _217
REMARK   98  A    between atoms: _219  and  _221
REMARK   99  A    between atoms: _224  and  _225
REMARK  100  A    between atoms: _228  and  _230
REMARK  101  A    between atoms: _230  and  _231
REMARK  102  A    between atoms: _230  and  _233
REMARK  103  A    between atoms: _233  and  _234
REMARK  104  A    between atoms: _234  and  _235
REMARK  105  A    between atoms: _238  and  _240
REMARK  106  A    between atoms: _240  and  _241
REMARK  107  A    between atoms: _240  and  _243
REMARK  108  A    between atoms: _245  and  _247
REMARK  109  A    between atoms: _247  and  _248
REMARK  110  A    between atoms: _247  and  _250
REMARK  111  A    between atoms: _250  and  _251
REMARK  112  A    between atoms: _253  and  _255
REMARK  113  A    between atoms: _255  and  _256
REMARK  114  A    between atoms: _258  and  _260
REMARK  115  A    between atoms: _260  and  _261
REMARK  116  A    between atoms: _260  and  _263
REMARK  117  A    between atoms: _263  and  _264
REMARK  118  A    between atoms: _267  and  _269
REMARK  119  A    between atoms: _269  and  _270
REMARK  120  A    between atoms: _269  and  _272
REMARK  121  A    between atoms: _272  and  _273
REMARK  122  A    between atoms: _278  and  _279
REMARK  123  A    between atoms: _281  and  _283
REMARK  124  A    between atoms: _283  and  _284
REMARK  125  A    between atoms: _283  and  _286
REMARK  126  A    between atoms: _286  and  _287
REMARK  127  A    between atoms: _289  and  _291
REMARK  128  A    between atoms: _291  and  _292
REMARK  129  A    between atoms: _291  and  _294
REMARK  130  A    between atoms: _294  and  _295
REMARK  131  A    between atoms: _298  and  _300
REMARK  132  A    between atoms: _300  and  _301
REMARK  133  A    between atoms: _300  and  _303
REMARK  134  A    between atoms: _303  and  _304
REMARK  135  A    between atoms: _306  and  _308
REMARK  136  A    between atoms: _308  and  _309
REMARK  137  A    between atoms: _308  and  _311
REMARK  138  A    between atoms: _311  and  _312
REMARK  139  A    between atoms: _317  and  _319
REMARK  140  A    between atoms: _319  and  _320
REMARK  141  A    between atoms: _319  and  _322
REMARK  142  A    between atoms: _322  and  _323
REMARK  143  A    between atoms: _326  and  _328
REMARK  144  A    between atoms: _328  and  _329
REMARK  145  A    between atoms: _328  and  _331
REMARK  146  A    between atoms: _331  and  _332
REMARK  147  A    between atoms: _332  and  _333
REMARK  148  A    between atoms: _336  and  _338
REMARK  149  A    between atoms: _338  and  _339
REMARK  150  A    between atoms: _338  and  _341
REMARK  151  A    between atoms: _341  and  _342
REMARK  152  A    between atoms: _342  and  _343
REMARK  153  A    between atoms: _343  and  _344
REMARK  154  A    between atoms: _353  and  _355
REMARK  155  A    between atoms: _355  and  _356
REMARK  156  A    between atoms: _355  and  _358
REMARK  157  A    between atoms: _358  and  _359
REMARK  158  A    between atoms: _362  and  _364
REMARK  159  A    between atoms: _364  and  _365
REMARK  160  A    between atoms: _364  and  _367
REMARK  161  A    between atoms: _367  and  _368
REMARK  162  A    between atoms: _373  and  _375
REMARK  163  A    between atoms: _375  and  _376
REMARK  164  A    between atoms: _375  and  _378
REMARK  165  A    between atoms: _378  and  _379
REMARK  166  A    between atoms: _379  and  _380
REMARK  167  A    between atoms: _380  and  _381
REMARK  168  A    between atoms: _381  and  _382
REMARK  169  A    between atoms: _386  and  _388
REMARK  170  A    between atoms: _388  and  _389
REMARK  171  A    between atoms: _388  and  _391
REMARK  172  A    between atoms: _391  and  _392
REMARK                            x       y       z     vdW  Elec       q    Type
REMARK                         _______ _______ _______ _____ _____    ______ ____
ROOT
ATOM      1  O   HOH     1     -19.033   8.565 -11.936  0.00  0.00    +0.000 OA
ENDROOT
TORSDOF 0
REMARK  Name = ../refined-set-2016/3c2o/3c2o_pocket.pdb
REMARK  172 active torsions:
REMARK  status: ('A' for Active; 'I' for Inactive)
REMARK    1  A    between atoms: _1  and  _3
REMARK    2  A    between atoms: _3  and  _4
REMARK    3  A    between atoms: _7  and  _9
REMARK    4  A    between atoms: _9  and  _10
REMARK    5  A    between atoms: _12  and  _14
REMARK    6  A    between atoms: _14  and  _15
REMARK    7  A    between atoms: _14  and  _17
REMARK    8  A    between atoms: _17  and  _18
REMARK    9  A    between atoms: _21  and  _23
REMARK   10  A    between atoms: _23  and  _24
REMARK   11  A    between atoms: _23  and  _26
REMARK   12  A    between atoms: _26  and  _27
REMARK   13  A    between atoms: _27  and  _28
REMARK   14  A    between atoms: _28  and  _29
REMARK   15  A    between atoms: _38  and  _40
REMARK   16  A    between atoms: _40  and  _41
REMARK   17  A    between atoms: _40  and  _43
REMARK   18  A    between atoms: _43  and  _44
REMARK   19  A    between atoms: _44  and  _45
REMARK   20  A    between atoms: _45  and  _46
REMARK   21  A    between atoms: _46  and  _47
REMARK   22  A    between atoms: _51  and  _53
REMARK   23  A    between atoms: _53  and  _54
REMARK   24  A    between atoms: _53  and  _56
REMARK   25  A    between atoms: _56  and  _57
REMARK   26  A    between atoms: _60  and  _62
REMARK   27  A    between atoms: _62  and  _63
REMARK   28  A    between atoms: _62  and  _65
REMARK   29  A    between atoms: _65  and  _66
REMARK   30  A    between atoms: _66  and  _67
REMARK   31  A    between atoms: _67  and  _68
REMARK   32  A    between atoms: _77  and  _79
REMARK   33  A    between atoms: _79  and  _80
REMARK   34  A    between atoms: _79  and  _82
REMARK   35  A    between atoms: _82  and  _83
REMARK   36  A    between atoms: _83  and  _84
REMARK   37  A    between atoms: _84  and  _85
REMARK   38  A    between atoms: _85  and  _86
REMARK   39  A    between atoms: _90  and  _92
REMARK   40  A    between atoms: _92  and  _93
REMARK   41  A    between atoms: _92  and  _95
REMARK   42  A    between atoms: _95  and  _96
REMARK   43  A    between atoms: _99  and  _101
REMARK   44  A    between atoms: _101  and  _102
REMARK   45  A    between atoms: _101  and  _104
REMARK   46  A    between atoms: _104  and  _105
REMARK   47  A    between atoms: _110  and  _112
REMARK   48  A    between atoms: _112  and  _113
REMARK   49  A    between atoms: _112  and  _115
REMARK   50  A    between atoms: _115  and  _116
REMARK   51  A    between atoms: _116  and  _117
REMARK   52  A    between atoms: _117  and  _118
REMARK   53  A    between atoms: _127  and  _129
REMARK   54  A    between atoms: _129  and  _130
REMARK   55  A    between atoms: _129  and  _132
REMARK   56  A    between atoms: _132  and  _133
REMARK   57  A    between atoms: _138  and  _139
REMARK   58  A    between atoms: _141  and  _143
REMARK   59  A    between atoms: _143  and  _144
REMARK   60  A    between atoms: _143  and  _146
REMARK   61  A    between atoms: _146  and  _147
REMARK   62  A    between atoms: _150  and  _152
REMARK   63  A    between atoms: _152  and  _153
REMARK   64  A    between atoms: _152  and  _155
REMARK   65  A    between atoms: _155  and  _156
REMARK   66  A    between atoms: _159  and  _161
REMARK   67  A    between atoms: _161  and  _162
REMARK   68  A    between atoms: _161  and  _164
REMARK   69  A    between atoms: _164  and  _165
REMARK   70  A    between atoms: _165  and  _166
REMARK   71  A    between atoms: _168  and  _170
REMARK   72  A    between atoms: _170  and  _171
REMARK   73  A    between atoms: _170  and  _173
REMARK   74  A    between atoms: _173  and  _174
REMARK   75  A    between atoms: _174  and  _175
REMARK   76  A    between atoms: _177  and  _179
REMARK   77  A    between atoms: _179  and  _180
REMARK   78  A    between atoms: _179  and  _182
REMARK   79  A    between atoms: _182  and  _183
REMARK   80  A    between atoms: _183  and  _184
REMARK   81  A    between atoms: _184  and  _185
REMARK   82  A    between atoms: _185  and  _186
REMARK   83  A    between atoms: _190  and  _192
REMARK   84  A    between atoms: _192  and  _193
REMARK   85  A    between atoms: _192  and  _195
REMARK   86  A    between atoms: _195  and  _196
REMARK   87  A    between atoms: _196  and  _197
REMARK   88  A    between atoms: _200  and  _202
REMARK   89  A    between atoms: _202  and  _203
REMARK   90  A    between atoms: _202  and  _205
REMARK   91  A    between atoms: _205  and  _206
REMARK   92  A    between atoms: _206  and  _207
REMARK   93  A    between atoms: _210  and  _212
REMARK   94  A    between atoms: _212  and  _213
REMARK   95  A    between atoms: _212  and  _215
REMARK   96  A    between atoms: _215  and  _216
REMARK   97  A    between atoms: _216  and  _217
REMARK   98  A    between atoms: _219  and  _221
REMARK   99  A    between atoms: _224  and  _225
REMARK  100  A    between atoms: _228  and  _230
REMARK  101  A    between atoms: _230  and  _231
REMARK  102  A    between atoms: _230  and  _233
REMARK  103  A    between atoms: _233  and  _234
REMARK  104  A    between atoms: _234  and  _235
REMARK  105  A    between atoms: _238  and  _240
REMARK  106  A    between atoms: _240  and  _241
REMARK  107  A    between atoms: _240  and  _243
REMARK  108  A    between atoms: _245  and  _247
REMARK  109  A    between atoms: _247  and  _248
REMARK  110  A    between atoms: _247  and  _250
REMARK  111  A    between atoms: _250  and  _251
REMARK  112  A    between atoms: _253  and  _255
REMARK  113  A    between atoms: _255  and  _256
REMARK  114  A    between atoms: _258  and  _260
REMARK  115  A    between atoms: _260  and  _261
REMARK  116  A    between atoms: _260  and  _263
REMARK  117  A    between atoms: _263  and  _264
REMARK  118  A    between atoms: _267  and  _269
REMARK  119  A    between atoms: _269  and  _270
REMARK  120  A    between atoms: _269  and  _272
REMARK  121  A    between atoms: _272  and  _273
REMARK  122  A    between atoms: _278  and  _279
REMARK  123  A    between atoms: _281  and  _283
REMARK  124  A    between atoms: _283  and  _284
REMARK  125  A    between atoms: _283  and  _286
REMARK  126  A    between atoms: _286  and  _287
REMARK  127  A    between atoms: _289  and  _291
REMARK  128  A    between atoms: _291  and  _292
REMARK  129  A    between atoms: _291  and  _294
REMARK  130  A    between atoms: _294  and  _295
REMARK  131  A    between atoms: _298  and  _300
REMARK  132  A    between atoms: _300  and  _301
REMARK  133  A    between atoms: _300  and  _303
REMARK  134  A    between atoms: _303  and  _304
REMARK  135  A    between atoms: _306  and  _308
REMARK  136  A    between atoms: _308  and  _309
REMARK  137  A    between atoms: _308  and  _311
REMARK  138  A    between atoms: _311  and  _312
REMARK  139  A    between atoms: _317  and  _319
REMARK  140  A    between atoms: _319  and  _320
REMARK  141  A    between atoms: _319  and  _322
REMARK  142  A    between atoms: _322  and  _323
REMARK  143  A    between atoms: _326  and  _328
REMARK  144  A    between atoms: _328  and  _329
REMARK  145  A    between atoms: _328  and  _331
REMARK  146  A    between atoms: _331  and  _332
REMARK  147  A    between atoms: _332  and  _333
REMARK  148  A    between atoms: _336  and  _338
REMARK  149  A    between atoms: _338  and  _339
REMARK  150  A    between atoms: _338  and  _341
REMARK  151  A    between atoms: _341  and  _342
REMARK  152  A    between atoms: _342  and  _343
REMARK  153  A    between atoms: _343  and  _344
REMARK  154  A    between atoms: _353  and  _355
REMARK  155  A    between atoms: _355  and  _356
REMARK  156  A    between atoms: _355  and  _358
REMARK  157  A    between atoms: _358  and  _359
REMARK  158  A    between atoms: _362  and  _364
REMARK  159  A    between atoms: _364  and  _365
REMARK  160  A    between atoms: _364  and  _367
REMARK  161  A    between atoms: _367  and  _368
REMARK  162  A    between atoms: _373  and  _375
REMARK  163  A    between atoms: _375  and  _376
REMARK  164  A    between atoms: _375  and  _378
REMARK  165  A    between atoms: _378  and  _379
REMARK  166  A    between atoms: _379  and  _380
REMARK  167  A    between atoms: _380  and  _381
REMARK  168  A    between atoms: _381  and  _382
REMARK  169  A    between atoms: _386  and  _388
REMARK  170  A    between atoms: _388  and  _389
REMARK  171  A    between atoms: _388  and  _391
REMARK  172  A    between atoms: _391  and  _392
REMARK                            x       y       z     vdW  Elec       q    Type
REMARK                         _______ _______ _______ _____ _____    ______ ____
ROOT
ATOM      1  O   HOH     1     -16.504   9.769  -7.028  0.00  0.00    +0.000 OA
ENDROOT
TORSDOF 0
REMARK  Name = ../refined-set-2016/3c2o/3c2o_pocket.pdb
REMARK  172 active torsions:
REMARK  status: ('A' for Active; 'I' for Inactive)
REMARK    1  A    between atoms: _1  and  _3
REMARK    2  A    between atoms: _3  and  _4
REMARK    3  A    between atoms: _7  and  _9
REMARK    4  A    between atoms: _9  and  _10
REMARK    5  A    between atoms: _12  and  _14
REMARK    6  A    between atoms: _14  and  _15
REMARK    7  A    between atoms: _14  and  _17
REMARK    8  A    between atoms: _17  and  _18
REMARK    9  A    between atoms: _21  and  _23
REMARK   10  A    between atoms: _23  and  _24
REMARK   11  A    between atoms: _23  and  _26
REMARK   12  A    between atoms: _26  and  _27
REMARK   13  A    between atoms: _27  and  _28
REMARK   14  A    between atoms: _28  and  _29
REMARK   15  A    between atoms: _38  and  _40
REMARK   16  A    between atoms: _40  and  _41
REMARK   17  A    between atoms: _40  and  _43
REMARK   18  A    between atoms: _43  and  _44
REMARK   19  A    between atoms: _44  and  _45
REMARK   20  A    between atoms: _45  and  _46
REMARK   21  A    between atoms: _46  and  _47
REMARK   22  A    between atoms: _51  and  _53
REMARK   23  A    between atoms: _53  and  _54
REMARK   24  A    between atoms: _53  and  _56
REMARK   25  A    between atoms: _56  and  _57
REMARK   26  A    between atoms: _60  and  _62
REMARK   27  A    between atoms: _62  and  _63
REMARK   28  A    between atoms: _62  and  _65
REMARK   29  A    between atoms: _65  and  _66
REMARK   30  A    between atoms: _66  and  _67
REMARK   31  A    between atoms: _67  and  _68
REMARK   32  A    between atoms: _77  and  _79
REMARK   33  A    between atoms: _79  and  _80
REMARK   34  A    between atoms: _79  and  _82
REMARK   35  A    between atoms: _82  and  _83
REMARK   36  A    between atoms: _83  and  _84
REMARK   37  A    between atoms: _84  and  _85
REMARK   38  A    between atoms: _85  and  _86
REMARK   39  A    between atoms: _90  and  _92
REMARK   40  A    between atoms: _92  and  _93
REMARK   41  A    between atoms: _92  and  _95
REMARK   42  A    between atoms: _95  and  _96
REMARK   43  A    between atoms: _99  and  _101
REMARK   44  A    between atoms: _101  and  _102
REMARK   45  A    between atoms: _101  and  _104
REMARK   46  A    between atoms: _104  and  _105
REMARK   47  A    between atoms: _110  and  _112
REMARK   48  A    between atoms: _112  and  _113
REMARK   49  A    between atoms: _112  and  _115
REMARK   50  A    between atoms: _115  and  _116
REMARK   51  A    between atoms: _116  and  _117
REMARK   52  A    between atoms: _117  and  _118
REMARK   53  A    between atoms: _127  and  _129
REMARK   54  A    between atoms: _129  and  _130
REMARK   55  A    between atoms: _129  and  _132
REMARK   56  A    between atoms: _132  and  _133
REMARK   57  A    between atoms: _138  and  _139
REMARK   58  A    between atoms: _141  and  _143
REMARK   59  A    between atoms: _143  and  _144
REMARK   60  A    between atoms: _143  and  _146
REMARK   61  A    between atoms: _146  and  _147
REMARK   62  A    between atoms: _150  and  _152
REMARK   63  A    between atoms: _152  and  _153
REMARK   64  A    between atoms: _152  and  _155
REMARK   65  A    between atoms: _155  and  _156
REMARK   66  A    between atoms: _159  and  _161
REMARK   67  A    between atoms: _161  and  _162
REMARK   68  A    between atoms: _161  and  _164
REMARK   69  A    between atoms: _164  and  _165
REMARK   70  A    between atoms: _165  and  _166
REMARK   71  A    between atoms: _168  and  _170
REMARK   72  A    between atoms: _170  and  _171
REMARK   73  A    between atoms: _170  and  _173
REMARK   74  A    between atoms: _173  and  _174
REMARK   75  A    between atoms: _174  and  _175
REMARK   76  A    between atoms: _177  and  _179
REMARK   77  A    between atoms: _179  and  _180
REMARK   78  A    between atoms: _179  and  _182
REMARK   79  A    between atoms: _182  and  _183
REMARK   80  A    between atoms: _183  and  _184
REMARK   81  A    between atoms: _184  and  _185
REMARK   82  A    between atoms: _185  and  _186
REMARK   83  A    between atoms: _190  and  _192
REMARK   84  A    between atoms: _192  and  _193
REMARK   85  A    between atoms: _192  and  _195
REMARK   86  A    between atoms: _195  and  _196
REMARK   87  A    between atoms: _196  and  _197
REMARK   88  A    between atoms: _200  and  _202
REMARK   89  A    between atoms: _202  and  _203
REMARK   90  A    between atoms: _202  and  _205
REMARK   91  A    between atoms: _205  and  _206
REMARK   92  A    between atoms: _206  and  _207
REMARK   93  A    between atoms: _210  and  _212
REMARK   94  A    between atoms: _212  and  _213
REMARK   95  A    between atoms: _212  and  _215
REMARK   96  A    between atoms: _215  and  _216
REMARK   97  A    between atoms: _216  and  _217
REMARK   98  A    between atoms: _219  and  _221
REMARK   99  A    between atoms: _224  and  _225
REMARK  100  A    between atoms: _228  and  _230
REMARK  101  A    between atoms: _230  and  _231
REMARK  102  A    between atoms: _230  and  _233
REMARK  103  A    between atoms: _233  and  _234
REMARK  104  A    between atoms: _234  and  _235
REMARK  105  A    between atoms: _238  and  _240
REMARK  106  A    between atoms: _240  and  _241
REMARK  107  A    between atoms: _240  and  _243
REMARK  108  A    between atoms: _245  and  _247
REMARK  109  A    between atoms: _247  and  _248
REMARK  110  A    between atoms: _247  and  _250
REMARK  111  A    between atoms: _250  and  _251
REMARK  112  A    between atoms: _253  and  _255
REMARK  113  A    between atoms: _255  and  _256
REMARK  114  A    between atoms: _258  and  _260
REMARK  115  A    between atoms: _260  and  _261
REMARK  116  A    between atoms: _260  and  _263
REMARK  117  A    between atoms: _263  and  _264
REMARK  118  A    between atoms: _267  and  _269
REMARK  119  A    between atoms: _269  and  _270
REMARK  120  A    between atoms: _269  and  _272
REMARK  121  A    between atoms: _272  and  _273
REMARK  122  A    between atoms: _278  and  _279
REMARK  123  A    between atoms: _281  and  _283
REMARK  124  A    between atoms: _283  and  _284
REMARK  125  A    between atoms: _283  and  _286
REMARK  126  A    between atoms: _286  and  _287
REMARK  127  A    between atoms: _289  and  _291
REMARK  128  A    between atoms: _291  and  _292
REMARK  129  A    between atoms: _291  and  _294
REMARK  130  A    between atoms: _294  and  _295
REMARK  131  A    between atoms: _298  and  _300
REMARK  132  A    between atoms: _300  and  _301
REMARK  133  A    between atoms: _300  and  _303
REMARK  134  A    between atoms: _303  and  _304
REMARK  135  A    between atoms: _306  and  _308
REMARK  136  A    between atoms: _308  and  _309
REMARK  137  A    between atoms: _308  and  _311
REMARK  138  A    between atoms: _311  and  _312
REMARK  139  A    between atoms: _317  and  _319
REMARK  140  A    between atoms: _319  and  _320
REMARK  141  A    between atoms: _319  and  _322
REMARK  142  A    between atoms: _322  and  _323
REMARK  143  A    between atoms: _326  and  _328
REMARK  144  A    between atoms: _328  and  _329
REMARK  145  A    between atoms: _328  and  _331
REMARK  146  A    between atoms: _331  and  _332
REMARK  147  A    between atoms: _332  and  _333
REMARK  148  A    between atoms: _336  and  _338
REMARK  149  A    between atoms: _338  and  _339
REMARK  150  A    between atoms: _338  and  _341
REMARK  151  A    between atoms: _341  and  _342
REMARK  152  A    between atoms: _342  and  _343
REMARK  153  A    between atoms: _343  and  _344
REMARK  154  A    between atoms: _353  and  _355
REMARK  155  A    between atoms: _355  and  _356
REMARK  156  A    between atoms: _355  and  _358
REMARK  157  A    between atoms: _358  and  _359
REMARK  158  A    between atoms: _362  and  _364
REMARK  159  A    between atoms: _364  and  _365
REMARK  160  A    between atoms: _364  and  _367
REMARK  161  A    between atoms: _367  and  _368
REMARK  162  A    between atoms: _373  and  _375
REMARK  163  A    between atoms: _375  and  _376
REMARK  164  A    between atoms: _375  and  _378
REMARK  165  A    between atoms: _378  and  _379
REMARK  166  A    between atoms: _379  and  _380
REMARK  167  A    between atoms: _380  and  _381
REMARK  168  A    between atoms: _381  and  _382
REMARK  169  A    between atoms: _386  and  _388
REMARK  170  A    between atoms: _388  and  _389
REMARK  171  A    between atoms: _388  and  _391
REMARK  172  A    between atoms: _391  and  _392
REMARK                            x       y       z     vdW  Elec       q    Type
REMARK                         _______ _______ _______ _____ _____    ______ ____
ROOT
ATOM      1  O   HOH     1     -22.168  16.126 -14.997  0.00  0.00    +0.000 OA
ENDROOT
TORSDOF 0
REMARK  Name = ../refined-set-2016/3c2o/3c2o_pocket.pdb
REMARK  172 active torsions:
REMARK  status: ('A' for Active; 'I' for Inactive)
REMARK    1  A    between atoms: _1  and  _3
REMARK    2  A    between atoms: _3  and  _4
REMARK    3  A    between atoms: _7  and  _9
REMARK    4  A    between atoms: _9  and  _10
REMARK    5  A    between atoms: _12  and  _14
REMARK    6  A    between atoms: _14  and  _15
REMARK    7  A    between atoms: _14  and  _17
REMARK    8  A    between atoms: _17  and  _18
REMARK    9  A    between atoms: _21  and  _23
REMARK   10  A    between atoms: _23  and  _24
REMARK   11  A    between atoms: _23  and  _26
REMARK   12  A    between atoms: _26  and  _27
REMARK   13  A    between atoms: _27  and  _28
REMARK   14  A    between atoms: _28  and  _29
REMARK   15  A    between atoms: _38  and  _40
REMARK   16  A    between atoms: _40  and  _41
REMARK   17  A    between atoms: _40  and  _43
REMARK   18  A    between atoms: _43  and  _44
REMARK   19  A    between atoms: _44  and  _45
REMARK   20  A    between atoms: _45  and  _46
REMARK   21  A    between atoms: _46  and  _47
REMARK   22  A    between atoms: _51  and  _53
REMARK   23  A    between atoms: _53  and  _54
REMARK   24  A    between atoms: _53  and  _56
REMARK   25  A    between atoms: _56  and  _57
REMARK   26  A    between atoms: _60  and  _62
REMARK   27  A    between atoms: _62  and  _63
REMARK   28  A    between atoms: _62  and  _65
REMARK   29  A    between atoms: _65  and  _66
REMARK   30  A    between atoms: _66  and  _67
REMARK   31  A    between atoms: _67  and  _68
REMARK   32  A    between atoms: _77  and  _79
REMARK   33  A    between atoms: _79  and  _80
REMARK   34  A    between atoms: _79  and  _82
REMARK   35  A    between atoms: _82  and  _83
REMARK   36  A    between atoms: _83  and  _84
REMARK   37  A    between atoms: _84  and  _85
REMARK   38  A    between atoms: _85  and  _86
REMARK   39  A    between atoms: _90  and  _92
REMARK   40  A    between atoms: _92  and  _93
REMARK   41  A    between atoms: _92  and  _95
REMARK   42  A    between atoms: _95  and  _96
REMARK   43  A    between atoms: _99  and  _101
REMARK   44  A    between atoms: _101  and  _102
REMARK   45  A    between atoms: _101  and  _104
REMARK   46  A    between atoms: _104  and  _105
REMARK   47  A    between atoms: _110  and  _112
REMARK   48  A    between atoms: _112  and  _113
REMARK   49  A    between atoms: _112  and  _115
REMARK   50  A    between atoms: _115  and  _116
REMARK   51  A    between atoms: _116  and  _117
REMARK   52  A    between atoms: _117  and  _118
REMARK   53  A    between atoms: _127  and  _129
REMARK   54  A    between atoms: _129  and  _130
REMARK   55  A    between atoms: _129  and  _132
REMARK   56  A    between atoms: _132  and  _133
REMARK   57  A    between atoms: _138  and  _139
REMARK   58  A    between atoms: _141  and  _143
REMARK   59  A    between atoms: _143  and  _144
REMARK   60  A    between atoms: _143  and  _146
REMARK   61  A    between atoms: _146  and  _147
REMARK   62  A    between atoms: _150  and  _152
REMARK   63  A    between atoms: _152  and  _153
REMARK   64  A    between atoms: _152  and  _155
REMARK   65  A    between atoms: _155  and  _156
REMARK   66  A    between atoms: _159  and  _161
REMARK   67  A    between atoms: _161  and  _162
REMARK   68  A    between atoms: _161  and  _164
REMARK   69  A    between atoms: _164  and  _165
REMARK   70  A    between atoms: _165  and  _166
REMARK   71  A    between atoms: _168  and  _170
REMARK   72  A    between atoms: _170  and  _171
REMARK   73  A    between atoms: _170  and  _173
REMARK   74  A    between atoms: _173  and  _174
REMARK   75  A    between atoms: _174  and  _175
REMARK   76  A    between atoms: _177  and  _179
REMARK   77  A    between atoms: _179  and  _180
REMARK   78  A    between atoms: _179  and  _182
REMARK   79  A    between atoms: _182  and  _183
REMARK   80  A    between atoms: _183  and  _184
REMARK   81  A    between atoms: _184  and  _185
REMARK   82  A    between atoms: _185  and  _186
REMARK   83  A    between atoms: _190  and  _192
REMARK   84  A    between atoms: _192  and  _193
REMARK   85  A    between atoms: _192  and  _195
REMARK   86  A    between atoms: _195  and  _196
REMARK   87  A    between atoms: _196  and  _197
REMARK   88  A    between atoms: _200  and  _202
REMARK   89  A    between atoms: _202  and  _203
REMARK   90  A    between atoms: _202  and  _205
REMARK   91  A    between atoms: _205  and  _206
REMARK   92  A    between atoms: _206  and  _207
REMARK   93  A    between atoms: _210  and  _212
REMARK   94  A    between atoms: _212  and  _213
REMARK   95  A    between atoms: _212  and  _215
REMARK   96  A    between atoms: _215  and  _216
REMARK   97  A    between atoms: _216  and  _217
REMARK   98  A    between atoms: _219  and  _221
REMARK   99  A    between atoms: _224  and  _225
REMARK  100  A    between atoms: _228  and  _230
REMARK  101  A    between atoms: _230  and  _231
REMARK  102  A    between atoms: _230  and  _233
REMARK  103  A    between atoms: _233  and  _234
REMARK  104  A    between atoms: _234  and  _235
REMARK  105  A    between atoms: _238  and  _240
REMARK  106  A    between atoms: _240  and  _241
REMARK  107  A    between atoms: _240  and  _243
REMARK  108  A    between atoms: _245  and  _247
REMARK  109  A    between atoms: _247  and  _248
REMARK  110  A    between atoms: _247  and  _250
REMARK  111  A    between atoms: _250  and  _251
REMARK  112  A    between atoms: _253  and  _255
REMARK  113  A    between atoms: _255  and  _256
REMARK  114  A    between atoms: _258  and  _260
REMARK  115  A    between atoms: _260  and  _261
REMARK  116  A    between atoms: _260  and  _263
REMARK  117  A    between atoms: _263  and  _264
REMARK  118  A    between atoms: _267  and  _269
REMARK  119  A    between atoms: _269  and  _270
REMARK  120  A    between atoms: _269  and  _272
REMARK  121  A    between atoms: _272  and  _273
REMARK  122  A    between atoms: _278  and  _279
REMARK  123  A    between atoms: _281  and  _283
REMARK  124  A    between atoms: _283  and  _284
REMARK  125  A    between atoms: _283  and  _286
REMARK  126  A    between atoms: _286  and  _287
REMARK  127  A    between atoms: _289  and  _291
REMARK  128  A    between atoms: _291  and  _292
REMARK  129  A    between atoms: _291  and  _294
REMARK  130  A    between atoms: _294  and  _295
REMARK  131  A    between atoms: _298  and  _300
REMARK  132  A    between atoms: _300  and  _301
REMARK  133  A    between atoms: _300  and  _303
REMARK  134  A    between atoms: _303  and  _304
REMARK  135  A    between atoms: _306  and  _308
REMARK  136  A    between atoms: _308  and  _309
REMARK  137  A    between atoms: _308  and  _311
REMARK  138  A    between atoms: _311  and  _312
REMARK  139  A    between atoms: _317  and  _319
REMARK  140  A    between atoms: _319  and  _320
REMARK  141  A    between atoms: _319  and  _322
REMARK  142  A    between atoms: _322  and  _323
REMARK  143  A    between atoms: _326  and  _328
REMARK  144  A    between atoms: _328  and  _329
REMARK  145  A    between atoms: _328  and  _331
REMARK  146  A    between atoms: _331  and  _332
REMARK  147  A    between atoms: _332  and  _333
REMARK  148  A    between atoms: _336  and  _338
REMARK  149  A    between atoms: _338  and  _339
REMARK  150  A    between atoms: _338  and  _341
REMARK  151  A    between atoms: _341  and  _342
REMARK  152  A    between atoms: _342  and  _343
REMARK  153  A    between atoms: _343  and  _344
REMARK  154  A    between atoms: _353  and  _355
REMARK  155  A    between atoms: _355  and  _356
REMARK  156  A    between atoms: _355  and  _358
REMARK  157  A    between atoms: _358  and  _359
REMARK  158  A    between atoms: _362  and  _364
REMARK  159  A    between atoms: _364  and  _365
REMARK  160  A    between atoms: _364  and  _367
REMARK  161  A    between atoms: _367  and  _368
REMARK  162  A    between atoms: _373  and  _375
REMARK  163  A    between atoms: _375  and  _376
REMARK  164  A    between atoms: _375  and  _378
REMARK  165  A    between atoms: _378  and  _379
REMARK  166  A    between atoms: _379  and  _380
REMARK  167  A    between atoms: _380  and  _381
REMARK  168  A    between atoms: _381  and  _382
REMARK  169  A    between atoms: _386  and  _388
REMARK  170  A    between atoms: _388  and  _389
REMARK  171  A    between atoms: _388  and  _391
REMARK  172  A    between atoms: _391  and  _392
REMARK                            x       y       z     vdW  Elec       q    Type
REMARK                         _______ _______ _______ _____ _____    ______ ____
ROOT
ATOM      1  O   HOH     1     -18.200  17.608  -9.513  0.00  0.00    +0.000 OA
ENDROOT
TORSDOF 0
REMARK  Name = ../refined-set-2016/3c2o/3c2o_pocket.pdb
REMARK  172 active torsions:
REMARK  status: ('A' for Active; 'I' for Inactive)
REMARK    1  A    between atoms: _1  and  _3
REMARK    2  A    between atoms: _3  and  _4
REMARK    3  A    between atoms: _7  and  _9
REMARK    4  A    between atoms: _9  and  _10
REMARK    5  A    between atoms: _12  and  _14
REMARK    6  A    between atoms: _14  and  _15
REMARK    7  A    between atoms: _14  and  _17
REMARK    8  A    between atoms: _17  and  _18
REMARK    9  A    between atoms: _21  and  _23
REMARK   10  A    between atoms: _23  and  _24
REMARK   11  A    between atoms: _23  and  _26
REMARK   12  A    between atoms: _26  and  _27
REMARK   13  A    between atoms: _27  and  _28
REMARK   14  A    between atoms: _28  and  _29
REMARK   15  A    between atoms: _38  and  _40
REMARK   16  A    between atoms: _40  and  _41
REMARK   17  A    between atoms: _40  and  _43
REMARK   18  A    between atoms: _43  and  _44
REMARK   19  A    between atoms: _44  and  _45
REMARK   20  A    between atoms: _45  and  _46
REMARK   21  A    between atoms: _46  and  _47
REMARK   22  A    between atoms: _51  and  _53
REMARK   23  A    between atoms: _53  and  _54
REMARK   24  A    between atoms: _53  and  _56
REMARK   25  A    between atoms: _56  and  _57
REMARK   26  A    between atoms: _60  and  _62
REMARK   27  A    between atoms: _62  and  _63
REMARK   28  A    between atoms: _62  and  _65
REMARK   29  A    between atoms: _65  and  _66
REMARK   30  A    between atoms: _66  and  _67
REMARK   31  A    between atoms: _67  and  _68
REMARK   32  A    between atoms: _77  and  _79
REMARK   33  A    between atoms: _79  and  _80
REMARK   34  A    between atoms: _79  and  _82
REMARK   35  A    between atoms: _82  and  _83
REMARK   36  A    between atoms: _83  and  _84
REMARK   37  A    between atoms: _84  and  _85
REMARK   38  A    between atoms: _85  and  _86
REMARK   39  A    between atoms: _90  and  _92
REMARK   40  A    between atoms: _92  and  _93
REMARK   41  A    between atoms: _92  and  _95
REMARK   42  A    between atoms: _95  and  _96
REMARK   43  A    between atoms: _99  and  _101
REMARK   44  A    between atoms: _101  and  _102
REMARK   45  A    between atoms: _101  and  _104
REMARK   46  A    between atoms: _104  and  _105
REMARK   47  A    between atoms: _110  and  _112
REMARK   48  A    between atoms: _112  and  _113
REMARK   49  A    between atoms: _112  and  _115
REMARK   50  A    between atoms: _115  and  _116
REMARK   51  A    between atoms: _116  and  _117
REMARK   52  A    between atoms: _117  and  _118
REMARK   53  A    between atoms: _127  and  _129
REMARK   54  A    between atoms: _129  and  _130
REMARK   55  A    between atoms: _129  and  _132
REMARK   56  A    between atoms: _132  and  _133
REMARK   57  A    between atoms: _138  and  _139
REMARK   58  A    between atoms: _141  and  _143
REMARK   59  A    between atoms: _143  and  _144
REMARK   60  A    between atoms: _143  and  _146
REMARK   61  A    between atoms: _146  and  _147
REMARK   62  A    between atoms: _150  and  _152
REMARK   63  A    between atoms: _152  and  _153
REMARK   64  A    between atoms: _152  and  _155
REMARK   65  A    between atoms: _155  and  _156
REMARK   66  A    between atoms: _159  and  _161
REMARK   67  A    between atoms: _161  and  _162
REMARK   68  A    between atoms: _161  and  _164
REMARK   69  A    between atoms: _164  and  _165
REMARK   70  A    between atoms: _165  and  _166
REMARK   71  A    between atoms: _168  and  _170
REMARK   72  A    between atoms: _170  and  _171
REMARK   73  A    between atoms: _170  and  _173
REMARK   74  A    between atoms: _173  and  _174
REMARK   75  A    between atoms: _174  and  _175
REMARK   76  A    between atoms: _177  and  _179
REMARK   77  A    between atoms: _179  and  _180
REMARK   78  A    between atoms: _179  and  _182
REMARK   79  A    between atoms: _182  and  _183
REMARK   80  A    between atoms: _183  and  _184
REMARK   81  A    between atoms: _184  and  _185
REMARK   82  A    between atoms: _185  and  _186
REMARK   83  A    between atoms: _190  and  _192
REMARK   84  A    between atoms: _192  and  _193
REMARK   85  A    between atoms: _192  and  _195
REMARK   86  A    between atoms: _195  and  _196
REMARK   87  A    between atoms: _196  and  _197
REMARK   88  A    between atoms: _200  and  _202
REMARK   89  A    between atoms: _202  and  _203
REMARK   90  A    between atoms: _202  and  _205
REMARK   91  A    between atoms: _205  and  _206
REMARK   92  A    between atoms: _206  and  _207
REMARK   93  A    between atoms: _210  and  _212
REMARK   94  A    between atoms: _212  and  _213
REMARK   95  A    between atoms: _212  and  _215
REMARK   96  A    between atoms: _215  and  _216
REMARK   97  A    between atoms: _216  and  _217
REMARK   98  A    between atoms: _219  and  _221
REMARK   99  A    between atoms: _224  and  _225
REMARK  100  A    between atoms: _228  and  _230
REMARK  101  A    between atoms: _230  and  _231
REMARK  102  A    between atoms: _230  and  _233
REMARK  103  A    between atoms: _233  and  _234
REMARK  104  A    between atoms: _234  and  _235
REMARK  105  A    between atoms: _238  and  _240
REMARK  106  A    between atoms: _240  and  _241
REMARK  107  A    between atoms: _240  and  _243
REMARK  108  A    between atoms: _245  and  _247
REMARK  109  A    between atoms: _247  and  _248
REMARK  110  A    between atoms: _247  and  _250
REMARK  111  A    between atoms: _250  and  _251
REMARK  112  A    between atoms: _253  and  _255
REMARK  113  A    between atoms: _255  and  _256
REMARK  114  A    between atoms: _258  and  _260
REMARK  115  A    between atoms: _260  and  _261
REMARK  116  A    between atoms: _260  and  _263
REMARK  117  A    between atoms: _263  and  _264
REMARK  118  A    between atoms: _267  and  _269
REMARK  119  A    between atoms: _269  and  _270
REMARK  120  A    between atoms: _269  and  _272
REMARK  121  A    between atoms: _272  and  _273
REMARK  122  A    between atoms: _278  and  _279
REMARK  123  A    between atoms: _281  and  _283
REMARK  124  A    between atoms: _283  and  _284
REMARK  125  A    between atoms: _283  and  _286
REMARK  126  A    between atoms: _286  and  _287
REMARK  127  A    between atoms: _289  and  _291
REMARK  128  A    between atoms: _291  and  _292
REMARK  129  A    between atoms: _291  and  _294
REMARK  130  A    between atoms: _294  and  _295
REMARK  131  A    between atoms: _298  and  _300
REMARK  132  A    between atoms: _300  and  _301
REMARK  133  A    between atoms: _300  and  _303
REMARK  134  A    between atoms: _303  and  _304
REMARK  135  A    between atoms: _306  and  _308
REMARK  136  A    between atoms: _308  and  _309
REMARK  137  A    between atoms: _308  and  _311
REMARK  138  A    between atoms: _311  and  _312
REMARK  139  A    between atoms: _317  and  _319
REMARK  140  A    between atoms: _319  and  _320
REMARK  141  A    between atoms: _319  and  _322
REMARK  142  A    between atoms: _322  and  _323
REMARK  143  A    between atoms: _326  and  _328
REMARK  144  A    between atoms: _328  and  _329
REMARK  145  A    between atoms: _328  and  _331
REMARK  146  A    between atoms: _331  and  _332
REMARK  147  A    between atoms: _332  and  _333
REMARK  148  A    between atoms: _336  and  _338
REMARK  149  A    between atoms: _338  and  _339
REMARK  150  A    between atoms: _338  and  _341
REMARK  151  A    between atoms: _341  and  _342
REMARK  152  A    between atoms: _342  and  _343
REMARK  153  A    between atoms: _343  and  _344
REMARK  154  A    between atoms: _353  and  _355
REMARK  155  A    between atoms: _355  and  _356
REMARK  156  A    between atoms: _355  and  _358
REMARK  157  A    between atoms: _358  and  _359
REMARK  158  A    between atoms: _362  and  _364
REMARK  159  A    between atoms: _364  and  _365
REMARK  160  A    between atoms: _364  and  _367
REMARK  161  A    between atoms: _367  and  _368
REMARK  162  A    between atoms: _373  and  _375
REMARK  163  A    between atoms: _375  and  _376
REMARK  164  A    between atoms: _375  and  _378
REMARK  165  A    between atoms: _378  and  _379
REMARK  166  A    between atoms: _379  and  _380
REMARK  167  A    between atoms: _380  and  _381
REMARK  168  A    between atoms: _381  and  _382
REMARK  169  A    between atoms: _386  and  _388
REMARK  170  A    between atoms: _388  and  _389
REMARK  171  A    between atoms: _388  and  _391
REMARK  172  A    between atoms: _391  and  _392
REMARK                            x       y       z     vdW  Elec       q    Type
REMARK                         _______ _______ _______ _____ _____    ______ ____
ROOT
ATOM      1  O   HOH     1     -22.762   4.942 -13.028  0.00  0.00    +0.000 OA
ENDROOT
TORSDOF 0
