REMARK  Name = ../refined-set-2016/2fle/2fle_pocket.pdb
REMARK  238 active torsions:
REMARK  status: ('A' for Active; 'I' for Inactive)
REMARK    1  A    between atoms: _1  and  _3
REMARK    2  A    between atoms: _3  and  _4
REMARK    3  A    between atoms: _3  and  _6
REMARK    4  A    between atoms: _6  and  _7
REMARK    5  A    between atoms: _7  and  _8
REMARK    6  A    between atoms: _8  and  _9
REMARK    7  A    between atoms: _19  and  _20
REMARK    8  A    between atoms: _25  and  _27
REMARK    9  A    between atoms: _27  and  _28
REMARK   10  A    between atoms: _27  and  _30
REMARK   11  A    between atoms: _30  and  _31
REMARK   12  A    between atoms: _34  and  _36
REMARK   13  A    between atoms: _36  and  _37
REMARK   14  A    between atoms: _36  and  _39
REMARK   15  A    between atoms: _39  and  _40
REMARK   16  A    between atoms: _43  and  _45
REMARK   17  A    between atoms: _45  and  _46
REMARK   18  A    between atoms: _45  and  _48
REMARK   19  A    between atoms: _48  and  _49
REMARK   20  A    between atoms: _52  and  _54
REMARK   21  A    between atoms: _54  and  _55
REMARK   22  A    between atoms: _54  and  _57
REMARK   23  A    between atoms: _57  and  _58
REMARK   24  A    between atoms: _61  and  _63
REMARK   25  A    between atoms: _63  and  _64
REMARK   26  A    between atoms: _63  and  _66
REMARK   27  A    between atoms: _66  and  _67
REMARK   28  A    between atoms: _70  and  _72
REMARK   29  A    between atoms: _72  and  _73
REMARK   30  A    between atoms: _75  and  _77
REMARK   31  A    between atoms: _77  and  _78
REMARK   32  A    between atoms: _81  and  _83
REMARK   33  A    between atoms: _83  and  _84
REMARK   34  A    between atoms: _83  and  _86
REMARK   35  A    between atoms: _86  and  _87
REMARK   36  A    between atoms: _90  and  _92
REMARK   37  A    between atoms: _92  and  _93
REMARK   38  A    between atoms: _92  and  _95
REMARK   39  A    between atoms: _95  and  _96
REMARK   40  A    between atoms: _99  and  _101
REMARK   41  A    between atoms: _101  and  _102
REMARK   42  A    between atoms: _101  and  _104
REMARK   43  A    between atoms: _104  and  _105
REMARK   44  A    between atoms: _108  and  _110
REMARK   45  A    between atoms: _110  and  _111
REMARK   46  A    between atoms: _110  and  _113
REMARK   47  A    between atoms: _116  and  _118
REMARK   48  A    between atoms: _118  and  _119
REMARK   49  A    between atoms: _118  and  _121
REMARK   50  A    between atoms: _121  and  _122
REMARK   51  A    between atoms: _125  and  _127
REMARK   52  A    between atoms: _127  and  _128
REMARK   53  A    between atoms: _127  and  _130
REMARK   54  A    between atoms: _130  and  _131
REMARK   55  A    between atoms: _131  and  _132
REMARK   56  A    between atoms: _132  and  _133
REMARK   57  A    between atoms: _133  and  _134
REMARK   58  A    between atoms: _138  and  _140
REMARK   59  A    between atoms: _140  and  _141
REMARK   60  A    between atoms: _140  and  _143
REMARK   61  A    between atoms: _143  and  _144
REMARK   62  A    between atoms: _144  and  _145
REMARK   63  A    between atoms: _147  and  _149
REMARK   64  A    between atoms: _149  and  _150
REMARK   65  A    between atoms: _149  and  _152
REMARK   66  A    between atoms: _152  and  _153
REMARK   67  A    between atoms: _156  and  _158
REMARK   68  A    between atoms: _158  and  _159
REMARK   69  A    between atoms: _161  and  _163
REMARK   70  A    between atoms: _163  and  _164
REMARK   71  A    between atoms: _166  and  _168
REMARK   72  A    between atoms: _168  and  _169
REMARK   73  A    between atoms: _168  and  _171
REMARK   74  A    between atoms: _171  and  _172
REMARK   75  A    between atoms: _175  and  _177
REMARK   76  A    between atoms: _177  and  _178
REMARK   77  A    between atoms: _180  and  _182
REMARK   78  A    between atoms: _182  and  _183
REMARK   79  A    between atoms: _185  and  _187
REMARK   80  A    between atoms: _187  and  _188
REMARK   81  A    between atoms: _187  and  _190
REMARK   82  A    between atoms: _190  and  _191
REMARK   83  A    between atoms: _197  and  _199
REMARK   84  A    between atoms: _199  and  _200
REMARK   85  A    between atoms: _199  and  _202
REMARK   86  A    between atoms: _202  and  _203
REMARK   87  A    between atoms: _206  and  _208
REMARK   88  A    between atoms: _208  and  _209
REMARK   89  A    between atoms: _208  and  _211
REMARK   90  A    between atoms: _214  and  _216
REMARK   91  A    between atoms: _216  and  _217
REMARK   92  A    between atoms: _216  and  _219
REMARK   93  A    between atoms: _219  and  _220
REMARK   94  A    between atoms: _224  and  _225
REMARK   95  A    between atoms: _230  and  _232
REMARK   96  A    between atoms: _232  and  _233
REMARK   97  A    between atoms: _232  and  _235
REMARK   98  A    between atoms: _235  and  _236
REMARK   99  A    between atoms: _240  and  _241
REMARK  100  A    between atoms: _246  and  _248
REMARK  101  A    between atoms: _248  and  _249
REMARK  102  A    between atoms: _252  and  _254
REMARK  103  A    between atoms: _254  and  _255
REMARK  104  A    between atoms: _254  and  _257
REMARK  105  A    between atoms: _257  and  _258
REMARK  106  A    between atoms: _263  and  _265
REMARK  107  A    between atoms: _265  and  _266
REMARK  108  A    between atoms: _265  and  _268
REMARK  109  A    between atoms: _268  and  _269
REMARK  110  A    between atoms: _272  and  _274
REMARK  111  A    between atoms: _274  and  _275
REMARK  112  A    between atoms: _274  and  _277
REMARK  113  A    between atoms: _277  and  _278
REMARK  114  A    between atoms: _281  and  _283
REMARK  115  A    between atoms: _283  and  _284
REMARK  116  A    between atoms: _286  and  _288
REMARK  117  A    between atoms: _288  and  _289
REMARK  118  A    between atoms: _288  and  _291
REMARK  119  A    between atoms: _291  and  _292
REMARK  120  A    between atoms: _292  and  _293
REMARK  121  A    between atoms: _293  and  _294
REMARK  122  A    between atoms: _303  and  _305
REMARK  123  A    between atoms: _305  and  _306
REMARK  124  A    between atoms: _305  and  _308
REMARK  125  A    between atoms: _308  and  _309
REMARK  126  A    between atoms: _309  and  _310
REMARK  127  A    between atoms: _310  and  _311
REMARK  128  A    between atoms: _321  and  _322
REMARK  129  A    between atoms: _327  and  _329
REMARK  130  A    between atoms: _329  and  _330
REMARK  131  A    between atoms: _329  and  _332
REMARK  132  A    between atoms: _332  and  _333
REMARK  133  A    between atoms: _336  and  _338
REMARK  134  A    between atoms: _338  and  _339
REMARK  135  A    between atoms: _338  and  _341
REMARK  136  A    between atoms: _341  and  _342
REMARK  137  A    between atoms: _345  and  _347
REMARK  138  A    between atoms: _347  and  _348
REMARK  139  A    between atoms: _347  and  _350
REMARK  140  A    between atoms: _350  and  _351
REMARK  141  A    between atoms: _354  and  _356
REMARK  142  A    between atoms: _356  and  _357
REMARK  143  A    between atoms: _356  and  _359
REMARK  144  A    between atoms: _359  and  _360
REMARK  145  A    between atoms: _363  and  _365
REMARK  146  A    between atoms: _365  and  _366
REMARK  147  A    between atoms: _365  and  _368
REMARK  148  A    between atoms: _368  and  _369
REMARK  149  A    between atoms: _372  and  _374
REMARK  150  A    between atoms: _374  and  _375
REMARK  151  A    between atoms: _377  and  _379
REMARK  152  A    between atoms: _379  and  _380
REMARK  153  A    between atoms: _383  and  _385
REMARK  154  A    between atoms: _385  and  _386
REMARK  155  A    between atoms: _385  and  _388
REMARK  156  A    between atoms: _388  and  _389
REMARK  157  A    between atoms: _392  and  _394
REMARK  158  A    between atoms: _394  and  _395
REMARK  159  A    between atoms: _394  and  _397
REMARK  160  A    between atoms: _397  and  _398
REMARK  161  A    between atoms: _401  and  _403
REMARK  162  A    between atoms: _403  and  _404
REMARK  163  A    between atoms: _403  and  _406
REMARK  164  A    between atoms: _406  and  _407
REMARK  165  A    between atoms: _410  and  _412
REMARK  166  A    between atoms: _412  and  _413
REMARK  167  A    between atoms: _412  and  _415
REMARK  168  A    between atoms: _418  and  _420
REMARK  169  A    between atoms: _420  and  _421
REMARK  170  A    between atoms: _420  and  _423
REMARK  171  A    between atoms: _423  and  _424
REMARK  172  A    between atoms: _427  and  _429
REMARK  173  A    between atoms: _429  and  _430
REMARK  174  A    between atoms: _429  and  _432
REMARK  175  A    between atoms: _432  and  _433
REMARK  176  A    between atoms: _433  and  _434
REMARK  177  A    between atoms: _434  and  _435
REMARK  178  A    between atoms: _435  and  _436
REMARK  179  A    between atoms: _440  and  _442
REMARK  180  A    between atoms: _442  and  _443
REMARK  181  A    between atoms: _442  and  _445
REMARK  182  A    between atoms: _445  and  _446
REMARK  183  A    between atoms: _446  and  _447
REMARK  184  A    between atoms: _449  and  _451
REMARK  185  A    between atoms: _451  and  _452
REMARK  186  A    between atoms: _451  and  _454
REMARK  187  A    between atoms: _454  and  _455
REMARK  188  A    between atoms: _458  and  _460
REMARK  189  A    between atoms: _460  and  _461
REMARK  190  A    between atoms: _463  and  _465
REMARK  191  A    between atoms: _465  and  _466
REMARK  192  A    between atoms: _468  and  _470
REMARK  193  A    between atoms: _470  and  _471
REMARK  194  A    between atoms: _470  and  _473
REMARK  195  A    between atoms: _473  and  _474
REMARK  196  A    between atoms: _477  and  _479
REMARK  197  A    between atoms: _479  and  _480
REMARK  198  A    between atoms: _482  and  _484
REMARK  199  A    between atoms: _484  and  _485
REMARK  200  A    between atoms: _487  and  _489
REMARK  201  A    between atoms: _489  and  _490
REMARK  202  A    between atoms: _489  and  _492
REMARK  203  A    between atoms: _492  and  _493
REMARK  204  A    between atoms: _496  and  _498
REMARK  205  A    between atoms: _498  and  _499
REMARK  206  A    between atoms: _498  and  _501
REMARK  207  A    between atoms: _504  and  _506
REMARK  208  A    between atoms: _506  and  _507
REMARK  209  A    between atoms: _506  and  _509
REMARK  210  A    between atoms: _509  and  _510
REMARK  211  A    between atoms: _514  and  _515
REMARK  212  A    between atoms: _520  and  _522
REMARK  213  A    between atoms: _522  and  _523
REMARK  214  A    between atoms: _522  and  _525
REMARK  215  A    between atoms: _525  and  _526
REMARK  216  A    between atoms: _530  and  _531
REMARK  217  A    between atoms: _536  and  _538
REMARK  218  A    between atoms: _538  and  _539
REMARK  219  A    between atoms: _542  and  _544
REMARK  220  A    between atoms: _544  and  _545
REMARK  221  A    between atoms: _544  and  _547
REMARK  222  A    between atoms: _547  and  _548
REMARK  223  A    between atoms: _553  and  _555
REMARK  224  A    between atoms: _555  and  _556
REMARK  225  A    between atoms: _555  and  _558
REMARK  226  A    between atoms: _558  and  _559
REMARK  227  A    between atoms: _562  and  _564
REMARK  228  A    between atoms: _564  and  _565
REMARK  229  A    between atoms: _564  and  _567
REMARK  230  A    between atoms: _567  and  _568
REMARK  231  A    between atoms: _571  and  _573
REMARK  232  A    between atoms: _573  and  _574
REMARK  233  A    between atoms: _576  and  _578
REMARK  234  A    between atoms: _578  and  _579
REMARK  235  A    between atoms: _578  and  _581
REMARK  236  A    between atoms: _581  and  _582
REMARK  237  A    between atoms: _582  and  _583
REMARK  238  A    between atoms: _583  and  _584
REMARK                            x       y       z     vdW  Elec       q    Type
REMARK                         _______ _______ _______ _____ _____    ______ ____
ROOT
ATOM      1  C   ARG A   1       9.600 -34.023  18.117  0.00  0.00    +0.241 C 
ATOM      2  O   ARG A   1       8.372 -34.153  18.077  0.00  0.00    -0.273 OA
ATOM      3  N   PRO A   2      10.268 -33.237  17.250  0.00  0.00    -0.272 N 
ATOM      4  CD  PRO A   2      11.703 -32.886  17.266  0.00  0.00    +0.094 C 
ATOM      5  CG  PRO A   2      11.877 -32.170  15.941  0.00  0.00    +0.024 C 
ATOM      6  CB  PRO A   2      10.591 -31.447  15.789  0.00  0.00    +0.031 C 
ATOM      7  CA  PRO A   2       9.573 -32.505  16.192  0.00  0.00    +0.152 C 
ENDROOT
BRANCH   7   8
ATOM      8  C   PRO A   2       9.171 -33.416  15.037  0.00  0.00    +0.241 C 
ATOM      9  N   LEU A   3       8.086 -34.152  15.245  0.00  0.00    -0.298 N 
ATOM     10  H   LEU A   3       7.584 -34.064  16.152  0.00  0.00    +0.150 HD
ATOM     11  O   PRO A   2       9.815 -33.443  13.984  0.00  0.00    -0.273 OA
BRANCH   9  12
ATOM     12  CA  LEU A   3       7.576 -35.079  14.244  0.00  0.00    +0.137 C 
BRANCH  12  13
ATOM     13  C   LEU A   3       6.499 -34.431  13.382  0.00  0.00    +0.227 C 
ATOM     14  O   LEU A   3       5.710 -33.617  13.868  0.00  0.00    -0.286 OA
ENDBRANCH  12  13
BRANCH  12  15
ATOM     15  CB  LEU A   3       6.997 -36.323  14.932  0.00  0.00    +0.028 C 
BRANCH  15  16
ATOM     16  CG  LEU A   3       7.945 -37.125  15.830  0.00  0.00    +0.002 C 
ATOM     17  CD2 LEU A   3       7.185 -38.274  16.486  0.00  0.00    +0.000 C 
ATOM     18  CD1 LEU A   3       9.109 -37.656  15.013  0.00  0.00    +0.000 C 
ENDBRANCH  15  16
ENDBRANCH  12  15
ENDBRANCH   9  12
ENDBRANCH   7   8
BRANCH   1  19
ATOM     19  CA  ARG A   1      10.419 -34.742  19.181  0.00  0.00    +0.145 C 
BRANCH  19  20
ATOM     20  N   ARG A   1       9.756 -34.561  20.473  0.00  0.00    -0.238 NA
ATOM     21  H   ARG A   1       9.377 -35.384  20.984  0.00  0.00    +0.142 HD
ENDBRANCH  19  20
BRANCH  19  22
ATOM     22  CB  ARG A   1      10.542 -36.230  18.844  0.00  0.00    +0.030 C 
BRANCH  22  23
ATOM     23  CG  ARG A   1      11.521 -36.952  19.749  0.00  0.00    +0.045 C 
BRANCH  23  24
ATOM     24  CD  ARG A   1      11.518 -38.456  19.555  0.00  0.00    +0.174 C 
BRANCH  24  25
ATOM     25  NE  ARG A   1      12.390 -39.087  20.544  0.00  0.00    -0.265 N 
ATOM     26  HE  ARG A   1      13.041 -38.473  21.074  0.00  0.00    +0.259 HD
ATOM     27  CZ  ARG A   1      12.413 -40.388  20.817  0.00  0.00    +0.342 C 
ATOM     28  NH2 ARG A   1      13.235 -40.851  21.750  0.00  0.00    -0.292 N 
ATOM     29 HH21 ARG A   1      13.858 -40.197  22.265  0.00  0.00    +0.255 HD
ATOM     30 HH22 ARG A   1      13.256 -41.868  21.966  0.00  0.00    +0.255 HD
ATOM     31  NH1 ARG A   1      11.608 -41.226  20.174  0.00  0.00    -0.292 N 
ATOM     32 HH11 ARG A   1      11.632 -42.242  20.394  0.00  0.00    +0.255 HD
ATOM     33 HH12 ARG A   1      10.953 -40.866  19.451  0.00  0.00    +0.255 HD
ENDBRANCH  24  25
ENDBRANCH  23  24
ENDBRANCH  22  23
ENDBRANCH  19  22
ENDBRANCH   1  19
TORSDOF 11
REMARK  Name = ../refined-set-2016/2fle/2fle_pocket.pdb
REMARK  238 active torsions:
REMARK  status: ('A' for Active; 'I' for Inactive)
REMARK    1  A    between atoms: _1  and  _3
REMARK    2  A    between atoms: _3  and  _4
REMARK    3  A    between atoms: _3  and  _6
REMARK    4  A    between atoms: _6  and  _7
REMARK    5  A    between atoms: _7  and  _8
REMARK    6  A    between atoms: _8  and  _9
REMARK    7  A    between atoms: _19  and  _20
REMARK    8  A    between atoms: _25  and  _27
REMARK    9  A    between atoms: _27  and  _28
REMARK   10  A    between atoms: _27  and  _30
REMARK   11  A    between atoms: _30  and  _31
REMARK   12  A    between atoms: _34  and  _36
REMARK   13  A    between atoms: _36  and  _37
REMARK   14  A    between atoms: _36  and  _39
REMARK   15  A    between atoms: _39  and  _40
REMARK   16  A    between atoms: _43  and  _45
REMARK   17  A    between atoms: _45  and  _46
REMARK   18  A    between atoms: _45  and  _48
REMARK   19  A    between atoms: _48  and  _49
REMARK   20  A    between atoms: _52  and  _54
REMARK   21  A    between atoms: _54  and  _55
REMARK   22  A    between atoms: _54  and  _57
REMARK   23  A    between atoms: _57  and  _58
REMARK   24  A    between atoms: _61  and  _63
REMARK   25  A    between atoms: _63  and  _64
REMARK   26  A    between atoms: _63  and  _66
REMARK   27  A    between atoms: _66  and  _67
REMARK   28  A    between atoms: _70  and  _72
REMARK   29  A    between atoms: _72  and  _73
REMARK   30  A    between atoms: _75  and  _77
REMARK   31  A    between atoms: _77  and  _78
REMARK   32  A    between atoms: _81  and  _83
REMARK   33  A    between atoms: _83  and  _84
REMARK   34  A    between atoms: _83  and  _86
REMARK   35  A    between atoms: _86  and  _87
REMARK   36  A    between atoms: _90  and  _92
REMARK   37  A    between atoms: _92  and  _93
REMARK   38  A    between atoms: _92  and  _95
REMARK   39  A    between atoms: _95  and  _96
REMARK   40  A    between atoms: _99  and  _101
REMARK   41  A    between atoms: _101  and  _102
REMARK   42  A    between atoms: _101  and  _104
REMARK   43  A    between atoms: _104  and  _105
REMARK   44  A    between atoms: _108  and  _110
REMARK   45  A    between atoms: _110  and  _111
REMARK   46  A    between atoms: _110  and  _113
REMARK   47  A    between atoms: _116  and  _118
REMARK   48  A    between atoms: _118  and  _119
REMARK   49  A    between atoms: _118  and  _121
REMARK   50  A    between atoms: _121  and  _122
REMARK   51  A    between atoms: _125  and  _127
REMARK   52  A    between atoms: _127  and  _128
REMARK   53  A    between atoms: _127  and  _130
REMARK   54  A    between atoms: _130  and  _131
REMARK   55  A    between atoms: _131  and  _132
REMARK   56  A    between atoms: _132  and  _133
REMARK   57  A    between atoms: _133  and  _134
REMARK   58  A    between atoms: _138  and  _140
REMARK   59  A    between atoms: _140  and  _141
REMARK   60  A    between atoms: _140  and  _143
REMARK   61  A    between atoms: _143  and  _144
REMARK   62  A    between atoms: _144  and  _145
REMARK   63  A    between atoms: _147  and  _149
REMARK   64  A    between atoms: _149  and  _150
REMARK   65  A    between atoms: _149  and  _152
REMARK   66  A    between atoms: _152  and  _153
REMARK   67  A    between atoms: _156  and  _158
REMARK   68  A    between atoms: _158  and  _159
REMARK   69  A    between atoms: _161  and  _163
REMARK   70  A    between atoms: _163  and  _164
REMARK   71  A    between atoms: _166  and  _168
REMARK   72  A    between atoms: _168  and  _169
REMARK   73  A    between atoms: _168  and  _171
REMARK   74  A    between atoms: _171  and  _172
REMARK   75  A    between atoms: _175  and  _177
REMARK   76  A    between atoms: _177  and  _178
REMARK   77  A    between atoms: _180  and  _182
REMARK   78  A    between atoms: _182  and  _183
REMARK   79  A    between atoms: _185  and  _187
REMARK   80  A    between atoms: _187  and  _188
REMARK   81  A    between atoms: _187  and  _190
REMARK   82  A    between atoms: _190  and  _191
REMARK   83  A    between atoms: _197  and  _199
REMARK   84  A    between atoms: _199  and  _200
REMARK   85  A    between atoms: _199  and  _202
REMARK   86  A    between atoms: _202  and  _203
REMARK   87  A    between atoms: _206  and  _208
REMARK   88  A    between atoms: _208  and  _209
REMARK   89  A    between atoms: _208  and  _211
REMARK   90  A    between atoms: _214  and  _216
REMARK   91  A    between atoms: _216  and  _217
REMARK   92  A    between atoms: _216  and  _219
REMARK   93  A    between atoms: _219  and  _220
REMARK   94  A    between atoms: _224  and  _225
REMARK   95  A    between atoms: _230  and  _232
REMARK   96  A    between atoms: _232  and  _233
REMARK   97  A    between atoms: _232  and  _235
REMARK   98  A    between atoms: _235  and  _236
REMARK   99  A    between atoms: _240  and  _241
REMARK  100  A    between atoms: _246  and  _248
REMARK  101  A    between atoms: _248  and  _249
REMARK  102  A    between atoms: _252  and  _254
REMARK  103  A    between atoms: _254  and  _255
REMARK  104  A    between atoms: _254  and  _257
REMARK  105  A    between atoms: _257  and  _258
REMARK  106  A    between atoms: _263  and  _265
REMARK  107  A    between atoms: _265  and  _266
REMARK  108  A    between atoms: _265  and  _268
REMARK  109  A    between atoms: _268  and  _269
REMARK  110  A    between atoms: _272  and  _274
REMARK  111  A    between atoms: _274  and  _275
REMARK  112  A    between atoms: _274  and  _277
REMARK  113  A    between atoms: _277  and  _278
REMARK  114  A    between atoms: _281  and  _283
REMARK  115  A    between atoms: _283  and  _284
REMARK  116  A    between atoms: _286  and  _288
REMARK  117  A    between atoms: _288  and  _289
REMARK  118  A    between atoms: _288  and  _291
REMARK  119  A    between atoms: _291  and  _292
REMARK  120  A    between atoms: _292  and  _293
REMARK  121  A    between atoms: _293  and  _294
REMARK  122  A    between atoms: _303  and  _305
REMARK  123  A    between atoms: _305  and  _306
REMARK  124  A    between atoms: _305  and  _308
REMARK  125  A    between atoms: _308  and  _309
REMARK  126  A    between atoms: _309  and  _310
REMARK  127  A    between atoms: _310  and  _311
REMARK  128  A    between atoms: _321  and  _322
REMARK  129  A    between atoms: _327  and  _329
REMARK  130  A    between atoms: _329  and  _330
REMARK  131  A    between atoms: _329  and  _332
REMARK  132  A    between atoms: _332  and  _333
REMARK  133  A    between atoms: _336  and  _338
REMARK  134  A    between atoms: _338  and  _339
REMARK  135  A    between atoms: _338  and  _341
REMARK  136  A    between atoms: _341  and  _342
REMARK  137  A    between atoms: _345  and  _347
REMARK  138  A    between atoms: _347  and  _348
REMARK  139  A    between atoms: _347  and  _350
REMARK  140  A    between atoms: _350  and  _351
REMARK  141  A    between atoms: _354  and  _356
REMARK  142  A    between atoms: _356  and  _357
REMARK  143  A    between atoms: _356  and  _359
REMARK  144  A    between atoms: _359  and  _360
REMARK  145  A    between atoms: _363  and  _365
REMARK  146  A    between atoms: _365  and  _366
REMARK  147  A    between atoms: _365  and  _368
REMARK  148  A    between atoms: _368  and  _369
REMARK  149  A    between atoms: _372  and  _374
REMARK  150  A    between atoms: _374  and  _375
REMARK  151  A    between atoms: _377  and  _379
REMARK  152  A    between atoms: _379  and  _380
REMARK  153  A    between atoms: _383  and  _385
REMARK  154  A    between atoms: _385  and  _386
REMARK  155  A    between atoms: _385  and  _388
REMARK  156  A    between atoms: _388  and  _389
REMARK  157  A    between atoms: _392  and  _394
REMARK  158  A    between atoms: _394  and  _395
REMARK  159  A    between atoms: _394  and  _397
REMARK  160  A    between atoms: _397  and  _398
REMARK  161  A    between atoms: _401  and  _403
REMARK  162  A    between atoms: _403  and  _404
REMARK  163  A    between atoms: _403  and  _406
REMARK  164  A    between atoms: _406  and  _407
REMARK  165  A    between atoms: _410  and  _412
REMARK  166  A    between atoms: _412  and  _413
REMARK  167  A    between atoms: _412  and  _415
REMARK  168  A    between atoms: _418  and  _420
REMARK  169  A    between atoms: _420  and  _421
REMARK  170  A    between atoms: _420  and  _423
REMARK  171  A    between atoms: _423  and  _424
REMARK  172  A    between atoms: _427  and  _429
REMARK  173  A    between atoms: _429  and  _430
REMARK  174  A    between atoms: _429  and  _432
REMARK  175  A    between atoms: _432  and  _433
REMARK  176  A    between atoms: _433  and  _434
REMARK  177  A    between atoms: _434  and  _435
REMARK  178  A    between atoms: _435  and  _436
REMARK  179  A    between atoms: _440  and  _442
REMARK  180  A    between atoms: _442  and  _443
REMARK  181  A    between atoms: _442  and  _445
REMARK  182  A    between atoms: _445  and  _446
REMARK  183  A    between atoms: _446  and  _447
REMARK  184  A    between atoms: _449  and  _451
REMARK  185  A    between atoms: _451  and  _452
REMARK  186  A    between atoms: _451  and  _454
REMARK  187  A    between atoms: _454  and  _455
REMARK  188  A    between atoms: _458  and  _460
REMARK  189  A    between atoms: _460  and  _461
REMARK  190  A    between atoms: _463  and  _465
REMARK  191  A    between atoms: _465  and  _466
REMARK  192  A    between atoms: _468  and  _470
REMARK  193  A    between atoms: _470  and  _471
REMARK  194  A    between atoms: _470  and  _473
REMARK  195  A    between atoms: _473  and  _474
REMARK  196  A    between atoms: _477  and  _479
REMARK  197  A    between atoms: _479  and  _480
REMARK  198  A    between atoms: _482  and  _484
REMARK  199  A    between atoms: _484  and  _485
REMARK  200  A    between atoms: _487  and  _489
REMARK  201  A    between atoms: _489  and  _490
REMARK  202  A    between atoms: _489  and  _492
REMARK  203  A    between atoms: _492  and  _493
REMARK  204  A    between atoms: _496  and  _498
REMARK  205  A    between atoms: _498  and  _499
REMARK  206  A    between atoms: _498  and  _501
REMARK  207  A    between atoms: _504  and  _506
REMARK  208  A    between atoms: _506  and  _507
REMARK  209  A    between atoms: _506  and  _509
REMARK  210  A    between atoms: _509  and  _510
REMARK  211  A    between atoms: _514  and  _515
REMARK  212  A    between atoms: _520  and  _522
REMARK  213  A    between atoms: _522  and  _523
REMARK  214  A    between atoms: _522  and  _525
REMARK  215  A    between atoms: _525  and  _526
REMARK  216  A    between atoms: _530  and  _531
REMARK  217  A    between atoms: _536  and  _538
REMARK  218  A    between atoms: _538  and  _539
REMARK  219  A    between atoms: _542  and  _544
REMARK  220  A    between atoms: _544  and  _545
REMARK  221  A    between atoms: _544  and  _547
REMARK  222  A    between atoms: _547  and  _548
REMARK  223  A    between atoms: _553  and  _555
REMARK  224  A    between atoms: _555  and  _556
REMARK  225  A    between atoms: _555  and  _558
REMARK  226  A    between atoms: _558  and  _559
REMARK  227  A    between atoms: _562  and  _564
REMARK  228  A    between atoms: _564  and  _565
REMARK  229  A    between atoms: _564  and  _567
REMARK  230  A    between atoms: _567  and  _568
REMARK  231  A    between atoms: _571  and  _573
REMARK  232  A    between atoms: _573  and  _574
REMARK  233  A    between atoms: _576  and  _578
REMARK  234  A    between atoms: _578  and  _579
REMARK  235  A    between atoms: _578  and  _581
REMARK  236  A    between atoms: _581  and  _582
REMARK  237  A    between atoms: _582  and  _583
REMARK  238  A    between atoms: _583  and  _584
REMARK                            x       y       z     vdW  Elec       q    Type
REMARK                         _______ _______ _______ _____ _____    ______ ____
ROOT
ATOM      1  C   ALA A   6      21.323 -33.209   7.982  0.00  0.00    +0.241 C 
ATOM      2  O   ALA A   6      20.461 -32.434   7.574  0.00  0.00    -0.273 OA
ATOM      3  N   ASP A   7      22.413 -33.507   7.276  0.00  0.00    -0.297 N 
ATOM      4  H   ASP A   7      23.118 -34.158   7.677  0.00  0.00    +0.150 HD
ENDROOT
BRANCH   1   5
ATOM      5  CA  ALA A   6      21.176 -33.892   9.345  0.00  0.00    +0.149 C 
ATOM      6  CB  ALA A   6      20.055 -34.934   9.278  0.00  0.00    +0.031 C 
BRANCH   5   9
ATOM      7  C   GLY A   5      21.898 -32.594  11.284  0.00  0.00    +0.243 C 
ATOM      8  O   GLY A   5      23.074 -32.914  11.120  0.00  0.00    -0.273 OA
ATOM      9  N   ALA A   6      20.923 -32.991  10.467  0.00  0.00    -0.297 N 
ATOM     10  H   ALA A   6      19.955 -32.650  10.633  0.00  0.00    +0.150 HD
BRANCH   7  11
ATOM     11  CA  GLY A   5      21.506 -31.697  12.445  0.00  0.00    +0.176 C 
BRANCH  11  13
ATOM     12  C   THR A   4      19.862 -30.127  11.668  0.00  0.00    +0.243 C 
ATOM     13  N   GLY A   5      20.141 -31.205  12.394  0.00  0.00    -0.295 N 
ATOM     14  H   GLY A   5      19.388 -31.692  12.921  0.00  0.00    +0.150 HD
ATOM     15  O   THR A   4      20.718 -29.525  11.021  0.00  0.00    -0.273 OA
BRANCH  12  16
ATOM     16  CA  THR A   4      18.420 -29.656  11.657  0.00  0.00    +0.176 C 
BRANCH  16  18
ATOM     17  C   ASP A   3      17.240 -31.762  11.338  0.00  0.00    +0.241 C 
ATOM     18  N   THR A   4      17.468 -30.684  12.080  0.00  0.00    -0.295 N 
ATOM     19  H   THR A   4      16.960 -30.568  12.980  0.00  0.00    +0.150 HD
ATOM     20  O   ASP A   3      17.846 -31.987  10.290  0.00  0.00    -0.273 OA
BRANCH  17  21
ATOM     21  CA  ASP A   3      16.210 -32.762  11.883  0.00  0.00    +0.160 C 
BRANCH  21  24
ATOM     22  C   LEU A   2      13.804 -32.403  12.088  0.00  0.00    +0.241 C 
ATOM     23  O   LEU A   2      13.885 -32.093  13.283  0.00  0.00    -0.273 OA
ATOM     24  N   ASP A   3      14.860 -32.675  11.331  0.00  0.00    -0.297 N 
ATOM     25  H   ASP A   3      14.722 -32.831  10.312  0.00  0.00    +0.150 HD
BRANCH  22  26
ATOM     26  CA  LEU A   2      12.450 -32.487  11.391  0.00  0.00    +0.149 C 
BRANCH  26  28
ATOM     27  C   LEU A   1      12.235 -34.906  11.618  0.00  0.00    +0.238 C 
ATOM     28  N   LEU A   2      11.866 -33.686  12.016  0.00  0.00    -0.297 N 
ATOM     29  H   LEU A   2      11.161 -33.582  12.773  0.00  0.00    +0.150 HD
ATOM     30  O   LEU A   1      12.988 -35.086  10.664  0.00  0.00    -0.274 OA
BRANCH  27  31
ATOM     31  CA  LEU A   1      11.659 -36.116  12.369  0.00  0.00    +0.145 C 
BRANCH  31  32
ATOM     32  N   LEU A   1      11.054 -37.068  11.457  0.00  0.00    -0.238 NA
ATOM     33  H   LEU A   1      11.646 -37.834  11.077  0.00  0.00    +0.142 HD
ENDBRANCH  31  32
BRANCH  31  34
ATOM     34  CB  LEU A   1      12.777 -36.846  13.116  0.00  0.00    +0.026 C 
BRANCH  34  35
ATOM     35  CG  LEU A   1      13.467 -36.272  14.346  0.00  0.00    +0.002 C 
ATOM     36  CD2 LEU A   1      12.549 -36.374  15.559  0.00  0.00    +0.000 C 
ATOM     37  CD1 LEU A   1      14.750 -37.067  14.587  0.00  0.00    +0.000 C 
ENDBRANCH  34  35
ENDBRANCH  31  34
ENDBRANCH  27  31
ENDBRANCH  26  28
BRANCH  26  38
ATOM     38  CB  LEU A   2      11.618 -31.243  11.682  0.00  0.00    +0.029 C 
BRANCH  38  39
ATOM     39  CG  LEU A   2      10.228 -31.272  11.037  0.00  0.00    +0.002 C 
ATOM     40  CD2 LEU A   2       9.491 -29.982  11.342  0.00  0.00    +0.000 C 
ATOM     41  CD1 LEU A   2      10.366 -31.472   9.543  0.00  0.00    +0.000 C 
ENDBRANCH  38  39
ENDBRANCH  26  38
ENDBRANCH  22  26
ENDBRANCH  21  24
BRANCH  21  42
ATOM     42  CB  ASP A   3      16.694 -34.195  11.636  0.00  0.00    +0.143 C 
BRANCH  42  43
ATOM     43  CG  ASP A   3      17.930 -34.547  12.419  0.00  0.00    +0.367 C 
ATOM     44  OD2 ASP A   3      18.708 -33.635  12.753  0.00  0.00    -0.246 OA
ATOM     45  OD1 ASP A   3      18.123 -35.751  12.681  0.00  0.00    -0.246 OA
ENDBRANCH  42  43
ENDBRANCH  21  42
ENDBRANCH  17  21
ENDBRANCH  16  18
BRANCH  16  46
ATOM     46  CB  THR A   4      18.303 -28.393  12.538  0.00  0.00    +0.137 C 
ATOM     47  CG2 THR A   4      16.923 -27.765  12.362  0.00  0.00    +0.034 C 
BRANCH  46  48
ATOM     48  OG1 THR A   4      18.481 -28.740  13.921  0.00  0.00    -0.382 OA
ATOM     49  HG1 THR A   4      19.376 -29.143  14.046  0.00  0.00    +0.210 HD
ENDBRANCH  46  48
ENDBRANCH  16  46
ENDBRANCH  12  16
ENDBRANCH  11  13
ENDBRANCH   7  11
ENDBRANCH   5   9
ENDBRANCH   1   5
BRANCH   3  50
ATOM     50  CA  ASP A   7      22.637 -32.938   5.950  0.00  0.00    +0.160 C 
BRANCH  50  51
ATOM     51  C   ASP A   7      21.635 -33.540   4.982  0.00  0.00    +0.241 C 
ATOM     52  N   ASP A   8      21.350 -34.828   5.171  0.00  0.00    -0.297 N 
ATOM     53  H   ASP A   8      21.780 -35.322   5.979  0.00  0.00    +0.150 HD
ATOM     54  O   ASP A   7      21.144 -32.859   4.085  0.00  0.00    -0.273 OA
BRANCH  52  55
ATOM     55  CA  ASP A   8      20.457 -35.572   4.288  0.00  0.00    +0.160 C 
BRANCH  55  56
ATOM     56  C   ASP A   8      19.152 -36.068   4.912  0.00  0.00    +0.241 C 
ATOM     57  O   ASP A   8      18.976 -36.062   6.126  0.00  0.00    -0.273 OA
ATOM     58  N   THR A   9      18.251 -36.513   4.041  0.00  0.00    -0.295 N 
ATOM     59  H   THR A   9      18.484 -36.477   3.028  0.00  0.00    +0.150 HD
BRANCH  58  60
ATOM     60  CA  THR A   9      16.953 -37.049   4.434  0.00  0.00    +0.176 C 
BRANCH  60  61
ATOM     61  C   THR A   9      17.032 -38.564   4.266  0.00  0.00    +0.243 C 
ATOM     62  N   VAL A  10      16.791 -39.304   5.342  0.00  0.00    -0.297 N 
ATOM     63  H   VAL A  10      16.556 -38.840   6.243  0.00  0.00    +0.150 HD
ATOM     64  O   THR A   9      17.332 -39.054   3.178  0.00  0.00    -0.273 OA
BRANCH  62  65
ATOM     65  CA  VAL A  10      16.852 -40.760   5.275  0.00  0.00    +0.149 C 
BRANCH  65  66
ATOM     66  C   VAL A  10      15.596 -41.377   5.875  0.00  0.00    +0.241 C 
ATOM     67  O   VAL A  10      15.198 -41.052   6.993  0.00  0.00    -0.273 OA
ATOM     68  N   LEU A  11      14.979 -42.273   5.117  0.00  0.00    -0.298 N 
ATOM     69  H   LEU A  11      15.380 -42.514   4.188  0.00  0.00    +0.150 HD
BRANCH  68  70
ATOM     70  CA  LEU A  11      13.757 -42.927   5.551  0.00  0.00    +0.137 C 
BRANCH  70  71
ATOM     71  C   LEU A  11      13.963 -44.418   5.755  0.00  0.00    +0.227 C 
ATOM     72  O   LEU A  11      14.811 -45.030   5.099  0.00  0.00    -0.286 OA
ENDBRANCH  70  71
BRANCH  70  73
ATOM     73  CB  LEU A  11      12.663 -42.717   4.502  0.00  0.00    +0.028 C 
BRANCH  73  74
ATOM     74  CG  LEU A  11      12.271 -41.276   4.151  0.00  0.00    +0.002 C 
ATOM     75  CD2 LEU A  11      11.782 -40.550   5.397  0.00  0.00    +0.000 C 
ATOM     76  CD1 LEU A  11      11.185 -41.298   3.089  0.00  0.00    +0.000 C 
ENDBRANCH  73  74
ENDBRANCH  70  73
ENDBRANCH  68  70
ENDBRANCH  65  66
BRANCH  65  77
ATOM     77  CB  VAL A  10      18.102 -41.321   6.017  0.00  0.00    +0.027 C 
ATOM     78  CG2 VAL A  10      18.066 -40.943   7.473  0.00  0.00    +0.002 C 
ATOM     79  CG1 VAL A  10      18.158 -42.833   5.873  0.00  0.00    +0.002 C 
ENDBRANCH  65  77
ENDBRANCH  62  65
ENDBRANCH  60  61
BRANCH  60  80
ATOM     80  CB  THR A   9      15.839 -36.468   3.528  0.00  0.00    +0.137 C 
ATOM     81  CG2 THR A   9      14.514 -37.204   3.733  0.00  0.00    +0.034 C 
BRANCH  80  82
ATOM     82  OG1 THR A   9      15.667 -35.079   3.827  0.00  0.00    -0.382 OA
ATOM     83  HG1 THR A   9      16.517 -34.599   3.660  0.00  0.00    +0.210 HD
ENDBRANCH  80  82
ENDBRANCH  60  80
ENDBRANCH  58  60
ENDBRANCH  55  56
BRANCH  55  84
ATOM     84  CB  ASP A   8      21.193 -36.785   3.716  0.00  0.00    +0.143 C 
BRANCH  84  85
ATOM     85  CG  ASP A   8      22.555 -36.436   3.152  0.00  0.00    +0.367 C 
ATOM     86  OD2 ASP A   8      23.541 -37.110   3.520  0.00  0.00    -0.246 OA
ATOM     87  OD1 ASP A   8      22.634 -35.498   2.337  0.00  0.00    -0.246 OA
ENDBRANCH  84  85
ENDBRANCH  55  84
ENDBRANCH  52  55
ENDBRANCH  50  51
BRANCH  50  88
ATOM     88  CB  ASP A   7      24.030 -33.285   5.410  0.00  0.00    +0.143 C 
BRANCH  88  89
ATOM     89  CG  ASP A   7      25.143 -32.468   6.044  0.00  0.00    +0.367 C 
ATOM     90  OD2 ASP A   7      24.865 -31.620   6.914  0.00  0.00    -0.246 OA
ATOM     91  OD1 ASP A   7      26.310 -32.688   5.657  0.00  0.00    -0.246 OA
ENDBRANCH  88  89
ENDBRANCH  50  88
ENDBRANCH   3  50
TORSDOF 39
REMARK  Name = ../refined-set-2016/2fle/2fle_pocket.pdb
REMARK  238 active torsions:
REMARK  status: ('A' for Active; 'I' for Inactive)
REMARK    1  A    between atoms: _1  and  _3
REMARK    2  A    between atoms: _3  and  _4
REMARK    3  A    between atoms: _3  and  _6
REMARK    4  A    between atoms: _6  and  _7
REMARK    5  A    between atoms: _7  and  _8
REMARK    6  A    between atoms: _8  and  _9
REMARK    7  A    between atoms: _19  and  _20
REMARK    8  A    between atoms: _25  and  _27
REMARK    9  A    between atoms: _27  and  _28
REMARK   10  A    between atoms: _27  and  _30
REMARK   11  A    between atoms: _30  and  _31
REMARK   12  A    between atoms: _34  and  _36
REMARK   13  A    between atoms: _36  and  _37
REMARK   14  A    between atoms: _36  and  _39
REMARK   15  A    between atoms: _39  and  _40
REMARK   16  A    between atoms: _43  and  _45
REMARK   17  A    between atoms: _45  and  _46
REMARK   18  A    between atoms: _45  and  _48
REMARK   19  A    between atoms: _48  and  _49
REMARK   20  A    between atoms: _52  and  _54
REMARK   21  A    between atoms: _54  and  _55
REMARK   22  A    between atoms: _54  and  _57
REMARK   23  A    between atoms: _57  and  _58
REMARK   24  A    between atoms: _61  and  _63
REMARK   25  A    between atoms: _63  and  _64
REMARK   26  A    between atoms: _63  and  _66
REMARK   27  A    between atoms: _66  and  _67
REMARK   28  A    between atoms: _70  and  _72
REMARK   29  A    between atoms: _72  and  _73
REMARK   30  A    between atoms: _75  and  _77
REMARK   31  A    between atoms: _77  and  _78
REMARK   32  A    between atoms: _81  and  _83
REMARK   33  A    between atoms: _83  and  _84
REMARK   34  A    between atoms: _83  and  _86
REMARK   35  A    between atoms: _86  and  _87
REMARK   36  A    between atoms: _90  and  _92
REMARK   37  A    between atoms: _92  and  _93
REMARK   38  A    between atoms: _92  and  _95
REMARK   39  A    between atoms: _95  and  _96
REMARK   40  A    between atoms: _99  and  _101
REMARK   41  A    between atoms: _101  and  _102
REMARK   42  A    between atoms: _101  and  _104
REMARK   43  A    between atoms: _104  and  _105
REMARK   44  A    between atoms: _108  and  _110
REMARK   45  A    between atoms: _110  and  _111
REMARK   46  A    between atoms: _110  and  _113
REMARK   47  A    between atoms: _116  and  _118
REMARK   48  A    between atoms: _118  and  _119
REMARK   49  A    between atoms: _118  and  _121
REMARK   50  A    between atoms: _121  and  _122
REMARK   51  A    between atoms: _125  and  _127
REMARK   52  A    between atoms: _127  and  _128
REMARK   53  A    between atoms: _127  and  _130
REMARK   54  A    between atoms: _130  and  _131
REMARK   55  A    between atoms: _131  and  _132
REMARK   56  A    between atoms: _132  and  _133
REMARK   57  A    between atoms: _133  and  _134
REMARK   58  A    between atoms: _138  and  _140
REMARK   59  A    between atoms: _140  and  _141
REMARK   60  A    between atoms: _140  and  _143
REMARK   61  A    between atoms: _143  and  _144
REMARK   62  A    between atoms: _144  and  _145
REMARK   63  A    between atoms: _147  and  _149
REMARK   64  A    between atoms: _149  and  _150
REMARK   65  A    between atoms: _149  and  _152
REMARK   66  A    between atoms: _152  and  _153
REMARK   67  A    between atoms: _156  and  _158
REMARK   68  A    between atoms: _158  and  _159
REMARK   69  A    between atoms: _161  and  _163
REMARK   70  A    between atoms: _163  and  _164
REMARK   71  A    between atoms: _166  and  _168
REMARK   72  A    between atoms: _168  and  _169
REMARK   73  A    between atoms: _168  and  _171
REMARK   74  A    between atoms: _171  and  _172
REMARK   75  A    between atoms: _175  and  _177
REMARK   76  A    between atoms: _177  and  _178
REMARK   77  A    between atoms: _180  and  _182
REMARK   78  A    between atoms: _182  and  _183
REMARK   79  A    between atoms: _185  and  _187
REMARK   80  A    between atoms: _187  and  _188
REMARK   81  A    between atoms: _187  and  _190
REMARK   82  A    between atoms: _190  and  _191
REMARK   83  A    between atoms: _197  and  _199
REMARK   84  A    between atoms: _199  and  _200
REMARK   85  A    between atoms: _199  and  _202
REMARK   86  A    between atoms: _202  and  _203
REMARK   87  A    between atoms: _206  and  _208
REMARK   88  A    between atoms: _208  and  _209
REMARK   89  A    between atoms: _208  and  _211
REMARK   90  A    between atoms: _214  and  _216
REMARK   91  A    between atoms: _216  and  _217
REMARK   92  A    between atoms: _216  and  _219
REMARK   93  A    between atoms: _219  and  _220
REMARK   94  A    between atoms: _224  and  _225
REMARK   95  A    between atoms: _230  and  _232
REMARK   96  A    between atoms: _232  and  _233
REMARK   97  A    between atoms: _232  and  _235
REMARK   98  A    between atoms: _235  and  _236
REMARK   99  A    between atoms: _240  and  _241
REMARK  100  A    between atoms: _246  and  _248
REMARK  101  A    between atoms: _248  and  _249
REMARK  102  A    between atoms: _252  and  _254
REMARK  103  A    between atoms: _254  and  _255
REMARK  104  A    between atoms: _254  and  _257
REMARK  105  A    between atoms: _257  and  _258
REMARK  106  A    between atoms: _263  and  _265
REMARK  107  A    between atoms: _265  and  _266
REMARK  108  A    between atoms: _265  and  _268
REMARK  109  A    between atoms: _268  and  _269
REMARK  110  A    between atoms: _272  and  _274
REMARK  111  A    between atoms: _274  and  _275
REMARK  112  A    between atoms: _274  and  _277
REMARK  113  A    between atoms: _277  and  _278
REMARK  114  A    between atoms: _281  and  _283
REMARK  115  A    between atoms: _283  and  _284
REMARK  116  A    between atoms: _286  and  _288
REMARK  117  A    between atoms: _288  and  _289
REMARK  118  A    between atoms: _288  and  _291
REMARK  119  A    between atoms: _291  and  _292
REMARK  120  A    between atoms: _292  and  _293
REMARK  121  A    between atoms: _293  and  _294
REMARK  122  A    between atoms: _303  and  _305
REMARK  123  A    between atoms: _305  and  _306
REMARK  124  A    between atoms: _305  and  _308
REMARK  125  A    between atoms: _308  and  _309
REMARK  126  A    between atoms: _309  and  _310
REMARK  127  A    between atoms: _310  and  _311
REMARK  128  A    between atoms: _321  and  _322
REMARK  129  A    between atoms: _327  and  _329
REMARK  130  A    between atoms: _329  and  _330
REMARK  131  A    between atoms: _329  and  _332
REMARK  132  A    between atoms: _332  and  _333
REMARK  133  A    between atoms: _336  and  _338
REMARK  134  A    between atoms: _338  and  _339
REMARK  135  A    between atoms: _338  and  _341
REMARK  136  A    between atoms: _341  and  _342
REMARK  137  A    between atoms: _345  and  _347
REMARK  138  A    between atoms: _347  and  _348
REMARK  139  A    between atoms: _347  and  _350
REMARK  140  A    between atoms: _350  and  _351
REMARK  141  A    between atoms: _354  and  _356
REMARK  142  A    between atoms: _356  and  _357
REMARK  143  A    between atoms: _356  and  _359
REMARK  144  A    between atoms: _359  and  _360
REMARK  145  A    between atoms: _363  and  _365
REMARK  146  A    between atoms: _365  and  _366
REMARK  147  A    between atoms: _365  and  _368
REMARK  148  A    between atoms: _368  and  _369
REMARK  149  A    between atoms: _372  and  _374
REMARK  150  A    between atoms: _374  and  _375
REMARK  151  A    between atoms: _377  and  _379
REMARK  152  A    between atoms: _379  and  _380
REMARK  153  A    between atoms: _383  and  _385
REMARK  154  A    between atoms: _385  and  _386
REMARK  155  A    between atoms: _385  and  _388
REMARK  156  A    between atoms: _388  and  _389
REMARK  157  A    between atoms: _392  and  _394
REMARK  158  A    between atoms: _394  and  _395
REMARK  159  A    between atoms: _394  and  _397
REMARK  160  A    between atoms: _397  and  _398
REMARK  161  A    between atoms: _401  and  _403
REMARK  162  A    between atoms: _403  and  _404
REMARK  163  A    between atoms: _403  and  _406
REMARK  164  A    between atoms: _406  and  _407
REMARK  165  A    between atoms: _410  and  _412
REMARK  166  A    between atoms: _412  and  _413
REMARK  167  A    between atoms: _412  and  _415
REMARK  168  A    between atoms: _418  and  _420
REMARK  169  A    between atoms: _420  and  _421
REMARK  170  A    between atoms: _420  and  _423
REMARK  171  A    between atoms: _423  and  _424
REMARK  172  A    between atoms: _427  and  _429
REMARK  173  A    between atoms: _429  and  _430
REMARK  174  A    between atoms: _429  and  _432
REMARK  175  A    between atoms: _432  and  _433
REMARK  176  A    between atoms: _433  and  _434
REMARK  177  A    between atoms: _434  and  _435
REMARK  178  A    between atoms: _435  and  _436
REMARK  179  A    between atoms: _440  and  _442
REMARK  180  A    between atoms: _442  and  _443
REMARK  181  A    between atoms: _442  and  _445
REMARK  182  A    between atoms: _445  and  _446
REMARK  183  A    between atoms: _446  and  _447
REMARK  184  A    between atoms: _449  and  _451
REMARK  185  A    between atoms: _451  and  _452
REMARK  186  A    between atoms: _451  and  _454
REMARK  187  A    between atoms: _454  and  _455
REMARK  188  A    between atoms: _458  and  _460
REMARK  189  A    between atoms: _460  and  _461
REMARK  190  A    between atoms: _463  and  _465
REMARK  191  A    between atoms: _465  and  _466
REMARK  192  A    between atoms: _468  and  _470
REMARK  193  A    between atoms: _470  and  _471
REMARK  194  A    between atoms: _470  and  _473
REMARK  195  A    between atoms: _473  and  _474
REMARK  196  A    between atoms: _477  and  _479
REMARK  197  A    between atoms: _479  and  _480
REMARK  198  A    between atoms: _482  and  _484
REMARK  199  A    between atoms: _484  and  _485
REMARK  200  A    between atoms: _487  and  _489
REMARK  201  A    between atoms: _489  and  _490
REMARK  202  A    between atoms: _489  and  _492
REMARK  203  A    between atoms: _492  and  _493
REMARK  204  A    between atoms: _496  and  _498
REMARK  205  A    between atoms: _498  and  _499
REMARK  206  A    between atoms: _498  and  _501
REMARK  207  A    between atoms: _504  and  _506
REMARK  208  A    between atoms: _506  and  _507
REMARK  209  A    between atoms: _506  and  _509
REMARK  210  A    between atoms: _509  and  _510
REMARK  211  A    between atoms: _514  and  _515
REMARK  212  A    between atoms: _520  and  _522
REMARK  213  A    between atoms: _522  and  _523
REMARK  214  A    between atoms: _522  and  _525
REMARK  215  A    between atoms: _525  and  _526
REMARK  216  A    between atoms: _530  and  _531
REMARK  217  A    between atoms: _536  and  _538
REMARK  218  A    between atoms: _538  and  _539
REMARK  219  A    between atoms: _542  and  _544
REMARK  220  A    between atoms: _544  and  _545
REMARK  221  A    between atoms: _544  and  _547
REMARK  222  A    between atoms: _547  and  _548
REMARK  223  A    between atoms: _553  and  _555
REMARK  224  A    between atoms: _555  and  _556
REMARK  225  A    between atoms: _555  and  _558
REMARK  226  A    between atoms: _558  and  _559
REMARK  227  A    between atoms: _562  and  _564
REMARK  228  A    between atoms: _564  and  _565
REMARK  229  A    between atoms: _564  and  _567
REMARK  230  A    between atoms: _567  and  _568
REMARK  231  A    between atoms: _571  and  _573
REMARK  232  A    between atoms: _573  and  _574
REMARK  233  A    between atoms: _576  and  _578
REMARK  234  A    between atoms: _578  and  _579
REMARK  235  A    between atoms: _578  and  _581
REMARK  236  A    between atoms: _581  and  _582
REMARK  237  A    between atoms: _582  and  _583
REMARK  238  A    between atoms: _583  and  _584
REMARK                            x       y       z     vdW  Elec       q    Type
REMARK                         _______ _______ _______ _____ _____    ______ ____
ROOT
ATOM      1  C   GLY A   5      26.897 -41.173  13.223  0.00  0.00    +0.243 C 
ATOM      2  N   ILE A   6      26.208 -41.038  14.346  0.00  0.00    -0.297 N 
ATOM      3  H   ILE A   6      25.183 -40.869  14.293  0.00  0.00    +0.150 HD
ATOM      4  O   GLY A   5      28.104 -41.408  13.204  0.00  0.00    -0.273 OA
ENDROOT
BRANCH   2   5
ATOM      5  CA  ILE A   6      26.843 -41.119  15.646  0.00  0.00    +0.149 C 
BRANCH   5   6
ATOM      6  C   ILE A   6      27.552 -42.454  15.901  0.00  0.00    +0.241 C 
ATOM      7  O   ILE A   6      28.642 -42.477  16.473  0.00  0.00    -0.273 OA
ATOM      8  N   GLY A   7      26.956 -43.560  15.462  0.00  0.00    -0.295 N 
ATOM      9  H   GLY A   7      26.056 -43.496  14.944  0.00  0.00    +0.150 HD
BRANCH   8  10
ATOM     10  CA  GLY A   7      27.567 -44.862  15.708  0.00  0.00    +0.176 C 
BRANCH  10  11
ATOM     11  C   GLY A   7      28.288 -45.562  14.564  0.00  0.00    +0.243 C 
ATOM     12  O   GLY A   7      28.671 -46.726  14.684  0.00  0.00    -0.273 OA
ATOM     13  N   GLY A   8      28.481 -44.870  13.451  0.00  0.00    -0.295 N 
ATOM     14  H   GLY A   8      28.149 -43.887  13.383  0.00  0.00    +0.150 HD
BRANCH  13  15
ATOM     15  CA  GLY A   8      29.157 -45.489  12.330  0.00  0.00    +0.176 C 
BRANCH  15  16
ATOM     16  C   GLY A   8      28.479 -45.179  11.014  0.00  0.00    +0.243 C 
ATOM     17  O   GLY A   8      27.885 -44.116  10.854  0.00  0.00    -0.273 OA
ATOM     18  N   PHE A   9      28.550 -46.118  10.078  0.00  0.00    -0.297 N 
ATOM     19  H   PHE A   9      29.036 -47.011  10.295  0.00  0.00    +0.150 HD
BRANCH  18  20
ATOM     20  CA  PHE A   9      27.966 -45.934   8.754  0.00  0.00    +0.153 C 
BRANCH  20  21
ATOM     21  C   PHE A   9      26.931 -46.995   8.408  0.00  0.00    +0.241 C 
ATOM     22  O   PHE A   9      26.997 -48.123   8.891  0.00  0.00    -0.273 OA
ATOM     23  N   ILE A  10      25.965 -46.626   7.577  0.00  0.00    -0.298 N 
ATOM     24  H   ILE A  10      25.921 -45.641   7.245  0.00  0.00    +0.150 HD
BRANCH  23  25
ATOM     25  CA  ILE A  10      24.965 -47.583   7.124  0.00  0.00    +0.137 C 
BRANCH  25  26
ATOM     26  C   ILE A  10      24.874 -47.451   5.617  0.00  0.00    +0.227 C 
ATOM     27  O   ILE A  10      25.142 -46.386   5.054  0.00  0.00    -0.286 OA
ENDBRANCH  25  26
BRANCH  25  28
ATOM     28  CB  ILE A  10      23.553 -47.350   7.732  0.00  0.00    +0.026 C 
ATOM     29  CG2 ILE A  10      23.601 -47.556   9.233  0.00  0.00    +0.002 C 
BRANCH  28  30
ATOM     30  CG1 ILE A  10      23.026 -45.964   7.358  0.00  0.00    +0.002 C 
ATOM     31  CD1 ILE A  10      21.521 -45.825   7.544  0.00  0.00    +0.000 C 
ENDBRANCH  28  30
ENDBRANCH  25  28
ENDBRANCH  23  25
ENDBRANCH  20  21
BRANCH  20  32
ATOM     32  CB  PHE A   9      29.071 -45.986   7.691  0.00  0.00    +0.055 C 
BRANCH  32  33
ATOM     33  CG  PHE A   9      29.978 -44.781   7.683  0.00  0.00    -0.020 A 
ATOM     34  CD2 PHE A   9      31.036 -44.681   8.584  0.00  0.00    -0.004 A 
ATOM     35  CE2 PHE A   9      31.884 -43.572   8.572  0.00  0.00    -0.000 A 
ATOM     36  CZ  PHE A   9      31.675 -42.550   7.651  0.00  0.00    -0.000 A 
ATOM     37  CE1 PHE A   9      30.620 -42.639   6.746  0.00  0.00    -0.000 A 
ATOM     38  CD1 PHE A   9      29.779 -43.750   6.767  0.00  0.00    -0.004 A 
ENDBRANCH  32  33
ENDBRANCH  20  32
ENDBRANCH  18  20
ENDBRANCH  15  16
ENDBRANCH  13  15
ENDBRANCH  10  11
ENDBRANCH   8  10
ENDBRANCH   5   6
BRANCH   5  39
ATOM     39  CB  ILE A   6      25.801 -40.846  16.769  0.00  0.00    +0.027 C 
ATOM     40  CG2 ILE A   6      25.158 -42.141  17.236  0.00  0.00    +0.002 C 
BRANCH  39  41
ATOM     41  CG1 ILE A   6      26.476 -40.146  17.948  0.00  0.00    +0.002 C 
ATOM     42  CD1 ILE A   6      26.948 -38.743  17.629  0.00  0.00    +0.000 C 
ENDBRANCH  39  41
ENDBRANCH   5  39
ENDBRANCH   2   5
BRANCH   1  43
ATOM     43  CA  GLY A   5      26.108 -41.045  11.937  0.00  0.00    +0.176 C 
BRANCH  43  45
ATOM     44  C   GLY A   4      26.708 -41.046   9.594  0.00  0.00    +0.243 C 
ATOM     45  N   GLY A   5      26.894 -41.520  10.818  0.00  0.00    -0.295 N 
ATOM     46  H   GLY A   5      27.619 -42.248  10.978  0.00  0.00    +0.150 HD
ATOM     47  O   GLY A   4      25.860 -40.192   9.315  0.00  0.00    -0.273 OA
BRANCH  44  48
ATOM     48  CA  GLY A   4      27.612 -41.635   8.536  0.00  0.00    +0.176 C 
BRANCH  48  50
ATOM     49  C   ILE A   3      26.566 -42.486   6.547  0.00  0.00    +0.241 C 
ATOM     50  N   GLY A   4      27.120 -41.464   7.185  0.00  0.00    -0.295 N 
ATOM     51  H   GLY A   4      27.201 -40.540   6.715  0.00  0.00    +0.150 HD
ATOM     52  O   ILE A   3      26.424 -43.600   7.052  0.00  0.00    -0.273 OA
BRANCH  49  53
ATOM     53  CA  ILE A   3      26.097 -42.211   5.134  0.00  0.00    +0.149 C 
BRANCH  53  55
ATOM     54  C   MET A   2      26.928 -43.525   3.282  0.00  0.00    +0.241 C 
ATOM     55  N   ILE A   3      26.178 -43.448   4.372  0.00  0.00    -0.297 N 
ATOM     56  H   ILE A   3      25.641 -44.281   4.686  0.00  0.00    +0.150 HD
ATOM     57  O   MET A   2      27.563 -42.572   2.840  0.00  0.00    -0.273 OA
BRANCH  54  58
ATOM     58  CA  MET A   2      26.956 -44.863   2.573  0.00  0.00    +0.149 C 
BRANCH  58  60
ATOM     59  C   LYS A   1      25.719 -45.224   0.519  0.00  0.00    +0.238 C 
ATOM     60  N   MET A   2      26.733 -44.641   1.151  0.00  0.00    -0.297 N 
ATOM     61  H   MET A   2      27.376 -44.018   0.622  0.00  0.00    +0.150 HD
ATOM     62  O   LYS A   1      24.949 -46.011   1.074  0.00  0.00    -0.274 OA
BRANCH  59  63
ATOM     63  CA  LYS A   1      25.562 -44.894  -0.957  0.00  0.00    +0.145 C 
BRANCH  63  64
ATOM     64  N   LYS A   1      24.862 -45.987  -1.616  0.00  0.00    -0.238 NA
ATOM     65  H   LYS A   1      24.207 -46.581  -1.069  0.00  0.00    +0.142 HD
ENDBRANCH  63  64
BRANCH  63  66
ATOM     66  CB  LYS A   1      24.768 -43.591  -1.123  0.00  0.00    +0.026 C 
BRANCH  66  67
ATOM     67  CG  LYS A   1      25.451 -42.327  -0.595  0.00  0.00    -0.000 C 
BRANCH  67  68
ATOM     68  CD  LYS A   1      24.470 -41.149  -0.562  0.00  0.00    -0.024 C 
BRANCH  68  69
ATOM     69  CE  LYS A   1      25.122 -39.838  -0.111  0.00  0.00    -0.086 C 
BRANCH  69  70
ATOM     70  NZ  LYS A   1      26.018 -39.253  -1.150  0.00  0.00    +0.380 N 
ATOM     71  HZ1 LYS A   1      26.431 -38.369  -0.791  0.00  0.00    -0.089 HD
ATOM     72  HZ2 LYS A   1      26.778 -39.928  -1.371  0.00  0.00    -0.089 HD
ATOM     73  HZ3 LYS A   1      25.467 -39.056  -2.010  0.00  0.00    -0.089 HD
ENDBRANCH  69  70
ENDBRANCH  68  69
ENDBRANCH  67  68
ENDBRANCH  66  67
ENDBRANCH  63  66
ENDBRANCH  59  63
ENDBRANCH  58  60
BRANCH  58  74
ATOM     74  CB  MET A   2      28.304 -45.540   2.826  0.00  0.00    +0.041 C 
BRANCH  74  75
ATOM     75  CG  MET A   2      28.420 -46.922   2.226  0.00  0.00    +0.060 C 
BRANCH  75  76
ATOM     76  SD  MET A   2      29.738 -47.877   2.983  0.00  0.00    -0.139 S 
ATOM     77  CE  MET A   2      28.804 -48.776   4.211  0.00  0.00    +0.069 C 
ENDBRANCH  75  76
ENDBRANCH  74  75
ENDBRANCH  58  74
ENDBRANCH  54  58
ENDBRANCH  53  55
BRANCH  53  78
ATOM     78  CB  ILE A   3      24.659 -41.652   5.188  0.00  0.00    +0.027 C 
ATOM     79  CG2 ILE A   3      24.205 -41.258   3.797  0.00  0.00    +0.002 C 
BRANCH  78  80
ATOM     80  CG1 ILE A   3      23.724 -42.691   5.807  0.00  0.00    +0.002 C 
ATOM     81  CD1 ILE A   3      22.298 -42.223   5.939  0.00  0.00    +0.000 C 
ENDBRANCH  78  80
ENDBRANCH  53  78
ENDBRANCH  49  53
ENDBRANCH  48  50
ENDBRANCH  44  48
ENDBRANCH  43  45
ENDBRANCH   1  43
TORSDOF 36
REMARK  Name = ../refined-set-2016/2fle/2fle_pocket.pdb
REMARK  238 active torsions:
REMARK  status: ('A' for Active; 'I' for Inactive)
REMARK    1  A    between atoms: _1  and  _3
REMARK    2  A    between atoms: _3  and  _4
REMARK    3  A    between atoms: _3  and  _6
REMARK    4  A    between atoms: _6  and  _7
REMARK    5  A    between atoms: _7  and  _8
REMARK    6  A    between atoms: _8  and  _9
REMARK    7  A    between atoms: _19  and  _20
REMARK    8  A    between atoms: _25  and  _27
REMARK    9  A    between atoms: _27  and  _28
REMARK   10  A    between atoms: _27  and  _30
REMARK   11  A    between atoms: _30  and  _31
REMARK   12  A    between atoms: _34  and  _36
REMARK   13  A    between atoms: _36  and  _37
REMARK   14  A    between atoms: _36  and  _39
REMARK   15  A    between atoms: _39  and  _40
REMARK   16  A    between atoms: _43  and  _45
REMARK   17  A    between atoms: _45  and  _46
REMARK   18  A    between atoms: _45  and  _48
REMARK   19  A    between atoms: _48  and  _49
REMARK   20  A    between atoms: _52  and  _54
REMARK   21  A    between atoms: _54  and  _55
REMARK   22  A    between atoms: _54  and  _57
REMARK   23  A    between atoms: _57  and  _58
REMARK   24  A    between atoms: _61  and  _63
REMARK   25  A    between atoms: _63  and  _64
REMARK   26  A    between atoms: _63  and  _66
REMARK   27  A    between atoms: _66  and  _67
REMARK   28  A    between atoms: _70  and  _72
REMARK   29  A    between atoms: _72  and  _73
REMARK   30  A    between atoms: _75  and  _77
REMARK   31  A    between atoms: _77  and  _78
REMARK   32  A    between atoms: _81  and  _83
REMARK   33  A    between atoms: _83  and  _84
REMARK   34  A    between atoms: _83  and  _86
REMARK   35  A    between atoms: _86  and  _87
REMARK   36  A    between atoms: _90  and  _92
REMARK   37  A    between atoms: _92  and  _93
REMARK   38  A    between atoms: _92  and  _95
REMARK   39  A    between atoms: _95  and  _96
REMARK   40  A    between atoms: _99  and  _101
REMARK   41  A    between atoms: _101  and  _102
REMARK   42  A    between atoms: _101  and  _104
REMARK   43  A    between atoms: _104  and  _105
REMARK   44  A    between atoms: _108  and  _110
REMARK   45  A    between atoms: _110  and  _111
REMARK   46  A    between atoms: _110  and  _113
REMARK   47  A    between atoms: _116  and  _118
REMARK   48  A    between atoms: _118  and  _119
REMARK   49  A    between atoms: _118  and  _121
REMARK   50  A    between atoms: _121  and  _122
REMARK   51  A    between atoms: _125  and  _127
REMARK   52  A    between atoms: _127  and  _128
REMARK   53  A    between atoms: _127  and  _130
REMARK   54  A    between atoms: _130  and  _131
REMARK   55  A    between atoms: _131  and  _132
REMARK   56  A    between atoms: _132  and  _133
REMARK   57  A    between atoms: _133  and  _134
REMARK   58  A    between atoms: _138  and  _140
REMARK   59  A    between atoms: _140  and  _141
REMARK   60  A    between atoms: _140  and  _143
REMARK   61  A    between atoms: _143  and  _144
REMARK   62  A    between atoms: _144  and  _145
REMARK   63  A    between atoms: _147  and  _149
REMARK   64  A    between atoms: _149  and  _150
REMARK   65  A    between atoms: _149  and  _152
REMARK   66  A    between atoms: _152  and  _153
REMARK   67  A    between atoms: _156  and  _158
REMARK   68  A    between atoms: _158  and  _159
REMARK   69  A    between atoms: _161  and  _163
REMARK   70  A    between atoms: _163  and  _164
REMARK   71  A    between atoms: _166  and  _168
REMARK   72  A    between atoms: _168  and  _169
REMARK   73  A    between atoms: _168  and  _171
REMARK   74  A    between atoms: _171  and  _172
REMARK   75  A    between atoms: _175  and  _177
REMARK   76  A    between atoms: _177  and  _178
REMARK   77  A    between atoms: _180  and  _182
REMARK   78  A    between atoms: _182  and  _183
REMARK   79  A    between atoms: _185  and  _187
REMARK   80  A    between atoms: _187  and  _188
REMARK   81  A    between atoms: _187  and  _190
REMARK   82  A    between atoms: _190  and  _191
REMARK   83  A    between atoms: _197  and  _199
REMARK   84  A    between atoms: _199  and  _200
REMARK   85  A    between atoms: _199  and  _202
REMARK   86  A    between atoms: _202  and  _203
REMARK   87  A    between atoms: _206  and  _208
REMARK   88  A    between atoms: _208  and  _209
REMARK   89  A    between atoms: _208  and  _211
REMARK   90  A    between atoms: _214  and  _216
REMARK   91  A    between atoms: _216  and  _217
REMARK   92  A    between atoms: _216  and  _219
REMARK   93  A    between atoms: _219  and  _220
REMARK   94  A    between atoms: _224  and  _225
REMARK   95  A    between atoms: _230  and  _232
REMARK   96  A    between atoms: _232  and  _233
REMARK   97  A    between atoms: _232  and  _235
REMARK   98  A    between atoms: _235  and  _236
REMARK   99  A    between atoms: _240  and  _241
REMARK  100  A    between atoms: _246  and  _248
REMARK  101  A    between atoms: _248  and  _249
REMARK  102  A    between atoms: _252  and  _254
REMARK  103  A    between atoms: _254  and  _255
REMARK  104  A    between atoms: _254  and  _257
REMARK  105  A    between atoms: _257  and  _258
REMARK  106  A    between atoms: _263  and  _265
REMARK  107  A    between atoms: _265  and  _266
REMARK  108  A    between atoms: _265  and  _268
REMARK  109  A    between atoms: _268  and  _269
REMARK  110  A    between atoms: _272  and  _274
REMARK  111  A    between atoms: _274  and  _275
REMARK  112  A    between atoms: _274  and  _277
REMARK  113  A    between atoms: _277  and  _278
REMARK  114  A    between atoms: _281  and  _283
REMARK  115  A    between atoms: _283  and  _284
REMARK  116  A    between atoms: _286  and  _288
REMARK  117  A    between atoms: _288  and  _289
REMARK  118  A    between atoms: _288  and  _291
REMARK  119  A    between atoms: _291  and  _292
REMARK  120  A    between atoms: _292  and  _293
REMARK  121  A    between atoms: _293  and  _294
REMARK  122  A    between atoms: _303  and  _305
REMARK  123  A    between atoms: _305  and  _306
REMARK  124  A    between atoms: _305  and  _308
REMARK  125  A    between atoms: _308  and  _309
REMARK  126  A    between atoms: _309  and  _310
REMARK  127  A    between atoms: _310  and  _311
REMARK  128  A    between atoms: _321  and  _322
REMARK  129  A    between atoms: _327  and  _329
REMARK  130  A    between atoms: _329  and  _330
REMARK  131  A    between atoms: _329  and  _332
REMARK  132  A    between atoms: _332  and  _333
REMARK  133  A    between atoms: _336  and  _338
REMARK  134  A    between atoms: _338  and  _339
REMARK  135  A    between atoms: _338  and  _341
REMARK  136  A    between atoms: _341  and  _342
REMARK  137  A    between atoms: _345  and  _347
REMARK  138  A    between atoms: _347  and  _348
REMARK  139  A    between atoms: _347  and  _350
REMARK  140  A    between atoms: _350  and  _351
REMARK  141  A    between atoms: _354  and  _356
REMARK  142  A    between atoms: _356  and  _357
REMARK  143  A    between atoms: _356  and  _359
REMARK  144  A    between atoms: _359  and  _360
REMARK  145  A    between atoms: _363  and  _365
REMARK  146  A    between atoms: _365  and  _366
REMARK  147  A    between atoms: _365  and  _368
REMARK  148  A    between atoms: _368  and  _369
REMARK  149  A    between atoms: _372  and  _374
REMARK  150  A    between atoms: _374  and  _375
REMARK  151  A    between atoms: _377  and  _379
REMARK  152  A    between atoms: _379  and  _380
REMARK  153  A    between atoms: _383  and  _385
REMARK  154  A    between atoms: _385  and  _386
REMARK  155  A    between atoms: _385  and  _388
REMARK  156  A    between atoms: _388  and  _389
REMARK  157  A    between atoms: _392  and  _394
REMARK  158  A    between atoms: _394  and  _395
REMARK  159  A    between atoms: _394  and  _397
REMARK  160  A    between atoms: _397  and  _398
REMARK  161  A    between atoms: _401  and  _403
REMARK  162  A    between atoms: _403  and  _404
REMARK  163  A    between atoms: _403  and  _406
REMARK  164  A    between atoms: _406  and  _407
REMARK  165  A    between atoms: _410  and  _412
REMARK  166  A    between atoms: _412  and  _413
REMARK  167  A    between atoms: _412  and  _415
REMARK  168  A    between atoms: _418  and  _420
REMARK  169  A    between atoms: _420  and  _421
REMARK  170  A    between atoms: _420  and  _423
REMARK  171  A    between atoms: _423  and  _424
REMARK  172  A    between atoms: _427  and  _429
REMARK  173  A    between atoms: _429  and  _430
REMARK  174  A    between atoms: _429  and  _432
REMARK  175  A    between atoms: _432  and  _433
REMARK  176  A    between atoms: _433  and  _434
REMARK  177  A    between atoms: _434  and  _435
REMARK  178  A    between atoms: _435  and  _436
REMARK  179  A    between atoms: _440  and  _442
REMARK  180  A    between atoms: _442  and  _443
REMARK  181  A    between atoms: _442  and  _445
REMARK  182  A    between atoms: _445  and  _446
REMARK  183  A    between atoms: _446  and  _447
REMARK  184  A    between atoms: _449  and  _451
REMARK  185  A    between atoms: _451  and  _452
REMARK  186  A    between atoms: _451  and  _454
REMARK  187  A    between atoms: _454  and  _455
REMARK  188  A    between atoms: _458  and  _460
REMARK  189  A    between atoms: _460  and  _461
REMARK  190  A    between atoms: _463  and  _465
REMARK  191  A    between atoms: _465  and  _466
REMARK  192  A    between atoms: _468  and  _470
REMARK  193  A    between atoms: _470  and  _471
REMARK  194  A    between atoms: _470  and  _473
REMARK  195  A    between atoms: _473  and  _474
REMARK  196  A    between atoms: _477  and  _479
REMARK  197  A    between atoms: _479  and  _480
REMARK  198  A    between atoms: _482  and  _484
REMARK  199  A    between atoms: _484  and  _485
REMARK  200  A    between atoms: _487  and  _489
REMARK  201  A    between atoms: _489  and  _490
REMARK  202  A    between atoms: _489  and  _492
REMARK  203  A    between atoms: _492  and  _493
REMARK  204  A    between atoms: _496  and  _498
REMARK  205  A    between atoms: _498  and  _499
REMARK  206  A    between atoms: _498  and  _501
REMARK  207  A    between atoms: _504  and  _506
REMARK  208  A    between atoms: _506  and  _507
REMARK  209  A    between atoms: _506  and  _509
REMARK  210  A    between atoms: _509  and  _510
REMARK  211  A    between atoms: _514  and  _515
REMARK  212  A    between atoms: _520  and  _522
REMARK  213  A    between atoms: _522  and  _523
REMARK  214  A    between atoms: _522  and  _525
REMARK  215  A    between atoms: _525  and  _526
REMARK  216  A    between atoms: _530  and  _531
REMARK  217  A    between atoms: _536  and  _538
REMARK  218  A    between atoms: _538  and  _539
REMARK  219  A    between atoms: _542  and  _544
REMARK  220  A    between atoms: _544  and  _545
REMARK  221  A    between atoms: _544  and  _547
REMARK  222  A    between atoms: _547  and  _548
REMARK  223  A    between atoms: _553  and  _555
REMARK  224  A    between atoms: _555  and  _556
REMARK  225  A    between atoms: _555  and  _558
REMARK  226  A    between atoms: _558  and  _559
REMARK  227  A    between atoms: _562  and  _564
REMARK  228  A    between atoms: _564  and  _565
REMARK  229  A    between atoms: _564  and  _567
REMARK  230  A    between atoms: _567  and  _568
REMARK  231  A    between atoms: _571  and  _573
REMARK  232  A    between atoms: _573  and  _574
REMARK  233  A    between atoms: _576  and  _578
REMARK  234  A    between atoms: _578  and  _579
REMARK  235  A    between atoms: _578  and  _581
REMARK  236  A    between atoms: _581  and  _582
REMARK  237  A    between atoms: _582  and  _583
REMARK  238  A    between atoms: _583  and  _584
REMARK                            x       y       z     vdW  Elec       q    Type
REMARK                         _______ _______ _______ _____ _____    ______ ____
ROOT
ATOM      1  CA  VAL A   1      21.346 -46.991   1.861  0.00  0.00    +0.133 C 
ENDROOT
BRANCH   1   2
ATOM      2  CB  VAL A   1      20.966 -45.617   2.458  0.00  0.00    +0.023 C 
ATOM      3  CG2 VAL A   1      21.089 -45.659   3.971  0.00  0.00    +0.002 C 
ATOM      4  CG1 VAL A   1      21.861 -44.522   1.869  0.00  0.00    +0.002 C 
ENDBRANCH   1   2
BRANCH   1   5
ATOM      5  N   VAL A   1      22.701 -47.375   2.235  0.00  0.00    -0.239 NA
ATOM      6  H   VAL A   1      23.506 -46.971   1.715  0.00  0.00    +0.142 HD
ENDBRANCH   1   5
BRANCH   1   7
ATOM      7  C   VAL A   1      21.211 -46.891   0.352  0.00  0.00    +0.224 C 
ATOM      8  O   VAL A   1      22.203 -46.945  -0.376  0.00  0.00    -0.287 OA
ENDBRANCH   1   7
TORSDOF 3
REMARK  Name = ../refined-set-2016/2fle/2fle_pocket.pdb
REMARK  238 active torsions:
REMARK  status: ('A' for Active; 'I' for Inactive)
REMARK    1  A    between atoms: _1  and  _3
REMARK    2  A    between atoms: _3  and  _4
REMARK    3  A    between atoms: _3  and  _6
REMARK    4  A    between atoms: _6  and  _7
REMARK    5  A    between atoms: _7  and  _8
REMARK    6  A    between atoms: _8  and  _9
REMARK    7  A    between atoms: _19  and  _20
REMARK    8  A    between atoms: _25  and  _27
REMARK    9  A    between atoms: _27  and  _28
REMARK   10  A    between atoms: _27  and  _30
REMARK   11  A    between atoms: _30  and  _31
REMARK   12  A    between atoms: _34  and  _36
REMARK   13  A    between atoms: _36  and  _37
REMARK   14  A    between atoms: _36  and  _39
REMARK   15  A    between atoms: _39  and  _40
REMARK   16  A    between atoms: _43  and  _45
REMARK   17  A    between atoms: _45  and  _46
REMARK   18  A    between atoms: _45  and  _48
REMARK   19  A    between atoms: _48  and  _49
REMARK   20  A    between atoms: _52  and  _54
REMARK   21  A    between atoms: _54  and  _55
REMARK   22  A    between atoms: _54  and  _57
REMARK   23  A    between atoms: _57  and  _58
REMARK   24  A    between atoms: _61  and  _63
REMARK   25  A    between atoms: _63  and  _64
REMARK   26  A    between atoms: _63  and  _66
REMARK   27  A    between atoms: _66  and  _67
REMARK   28  A    between atoms: _70  and  _72
REMARK   29  A    between atoms: _72  and  _73
REMARK   30  A    between atoms: _75  and  _77
REMARK   31  A    between atoms: _77  and  _78
REMARK   32  A    between atoms: _81  and  _83
REMARK   33  A    between atoms: _83  and  _84
REMARK   34  A    between atoms: _83  and  _86
REMARK   35  A    between atoms: _86  and  _87
REMARK   36  A    between atoms: _90  and  _92
REMARK   37  A    between atoms: _92  and  _93
REMARK   38  A    between atoms: _92  and  _95
REMARK   39  A    between atoms: _95  and  _96
REMARK   40  A    between atoms: _99  and  _101
REMARK   41  A    between atoms: _101  and  _102
REMARK   42  A    between atoms: _101  and  _104
REMARK   43  A    between atoms: _104  and  _105
REMARK   44  A    between atoms: _108  and  _110
REMARK   45  A    between atoms: _110  and  _111
REMARK   46  A    between atoms: _110  and  _113
REMARK   47  A    between atoms: _116  and  _118
REMARK   48  A    between atoms: _118  and  _119
REMARK   49  A    between atoms: _118  and  _121
REMARK   50  A    between atoms: _121  and  _122
REMARK   51  A    between atoms: _125  and  _127
REMARK   52  A    between atoms: _127  and  _128
REMARK   53  A    between atoms: _127  and  _130
REMARK   54  A    between atoms: _130  and  _131
REMARK   55  A    between atoms: _131  and  _132
REMARK   56  A    between atoms: _132  and  _133
REMARK   57  A    between atoms: _133  and  _134
REMARK   58  A    between atoms: _138  and  _140
REMARK   59  A    between atoms: _140  and  _141
REMARK   60  A    between atoms: _140  and  _143
REMARK   61  A    between atoms: _143  and  _144
REMARK   62  A    between atoms: _144  and  _145
REMARK   63  A    between atoms: _147  and  _149
REMARK   64  A    between atoms: _149  and  _150
REMARK   65  A    between atoms: _149  and  _152
REMARK   66  A    between atoms: _152  and  _153
REMARK   67  A    between atoms: _156  and  _158
REMARK   68  A    between atoms: _158  and  _159
REMARK   69  A    between atoms: _161  and  _163
REMARK   70  A    between atoms: _163  and  _164
REMARK   71  A    between atoms: _166  and  _168
REMARK   72  A    between atoms: _168  and  _169
REMARK   73  A    between atoms: _168  and  _171
REMARK   74  A    between atoms: _171  and  _172
REMARK   75  A    between atoms: _175  and  _177
REMARK   76  A    between atoms: _177  and  _178
REMARK   77  A    between atoms: _180  and  _182
REMARK   78  A    between atoms: _182  and  _183
REMARK   79  A    between atoms: _185  and  _187
REMARK   80  A    between atoms: _187  and  _188
REMARK   81  A    between atoms: _187  and  _190
REMARK   82  A    between atoms: _190  and  _191
REMARK   83  A    between atoms: _197  and  _199
REMARK   84  A    between atoms: _199  and  _200
REMARK   85  A    between atoms: _199  and  _202
REMARK   86  A    between atoms: _202  and  _203
REMARK   87  A    between atoms: _206  and  _208
REMARK   88  A    between atoms: _208  and  _209
REMARK   89  A    between atoms: _208  and  _211
REMARK   90  A    between atoms: _214  and  _216
REMARK   91  A    between atoms: _216  and  _217
REMARK   92  A    between atoms: _216  and  _219
REMARK   93  A    between atoms: _219  and  _220
REMARK   94  A    between atoms: _224  and  _225
REMARK   95  A    between atoms: _230  and  _232
REMARK   96  A    between atoms: _232  and  _233
REMARK   97  A    between atoms: _232  and  _235
REMARK   98  A    between atoms: _235  and  _236
REMARK   99  A    between atoms: _240  and  _241
REMARK  100  A    between atoms: _246  and  _248
REMARK  101  A    between atoms: _248  and  _249
REMARK  102  A    between atoms: _252  and  _254
REMARK  103  A    between atoms: _254  and  _255
REMARK  104  A    between atoms: _254  and  _257
REMARK  105  A    between atoms: _257  and  _258
REMARK  106  A    between atoms: _263  and  _265
REMARK  107  A    between atoms: _265  and  _266
REMARK  108  A    between atoms: _265  and  _268
REMARK  109  A    between atoms: _268  and  _269
REMARK  110  A    between atoms: _272  and  _274
REMARK  111  A    between atoms: _274  and  _275
REMARK  112  A    between atoms: _274  and  _277
REMARK  113  A    between atoms: _277  and  _278
REMARK  114  A    between atoms: _281  and  _283
REMARK  115  A    between atoms: _283  and  _284
REMARK  116  A    between atoms: _286  and  _288
REMARK  117  A    between atoms: _288  and  _289
REMARK  118  A    between atoms: _288  and  _291
REMARK  119  A    between atoms: _291  and  _292
REMARK  120  A    between atoms: _292  and  _293
REMARK  121  A    between atoms: _293  and  _294
REMARK  122  A    between atoms: _303  and  _305
REMARK  123  A    between atoms: _305  and  _306
REMARK  124  A    between atoms: _305  and  _308
REMARK  125  A    between atoms: _308  and  _309
REMARK  126  A    between atoms: _309  and  _310
REMARK  127  A    between atoms: _310  and  _311
REMARK  128  A    between atoms: _321  and  _322
REMARK  129  A    between atoms: _327  and  _329
REMARK  130  A    between atoms: _329  and  _330
REMARK  131  A    between atoms: _329  and  _332
REMARK  132  A    between atoms: _332  and  _333
REMARK  133  A    between atoms: _336  and  _338
REMARK  134  A    between atoms: _338  and  _339
REMARK  135  A    between atoms: _338  and  _341
REMARK  136  A    between atoms: _341  and  _342
REMARK  137  A    between atoms: _345  and  _347
REMARK  138  A    between atoms: _347  and  _348
REMARK  139  A    between atoms: _347  and  _350
REMARK  140  A    between atoms: _350  and  _351
REMARK  141  A    between atoms: _354  and  _356
REMARK  142  A    between atoms: _356  and  _357
REMARK  143  A    between atoms: _356  and  _359
REMARK  144  A    between atoms: _359  and  _360
REMARK  145  A    between atoms: _363  and  _365
REMARK  146  A    between atoms: _365  and  _366
REMARK  147  A    between atoms: _365  and  _368
REMARK  148  A    between atoms: _368  and  _369
REMARK  149  A    between atoms: _372  and  _374
REMARK  150  A    between atoms: _374  and  _375
REMARK  151  A    between atoms: _377  and  _379
REMARK  152  A    between atoms: _379  and  _380
REMARK  153  A    between atoms: _383  and  _385
REMARK  154  A    between atoms: _385  and  _386
REMARK  155  A    between atoms: _385  and  _388
REMARK  156  A    between atoms: _388  and  _389
REMARK  157  A    between atoms: _392  and  _394
REMARK  158  A    between atoms: _394  and  _395
REMARK  159  A    between atoms: _394  and  _397
REMARK  160  A    between atoms: _397  and  _398
REMARK  161  A    between atoms: _401  and  _403
REMARK  162  A    between atoms: _403  and  _404
REMARK  163  A    between atoms: _403  and  _406
REMARK  164  A    between atoms: _406  and  _407
REMARK  165  A    between atoms: _410  and  _412
REMARK  166  A    between atoms: _412  and  _413
REMARK  167  A    between atoms: _412  and  _415
REMARK  168  A    between atoms: _418  and  _420
REMARK  169  A    between atoms: _420  and  _421
REMARK  170  A    between atoms: _420  and  _423
REMARK  171  A    between atoms: _423  and  _424
REMARK  172  A    between atoms: _427  and  _429
REMARK  173  A    between atoms: _429  and  _430
REMARK  174  A    between atoms: _429  and  _432
REMARK  175  A    between atoms: _432  and  _433
REMARK  176  A    between atoms: _433  and  _434
REMARK  177  A    between atoms: _434  and  _435
REMARK  178  A    between atoms: _435  and  _436
REMARK  179  A    between atoms: _440  and  _442
REMARK  180  A    between atoms: _442  and  _443
REMARK  181  A    between atoms: _442  and  _445
REMARK  182  A    between atoms: _445  and  _446
REMARK  183  A    between atoms: _446  and  _447
REMARK  184  A    between atoms: _449  and  _451
REMARK  185  A    between atoms: _451  and  _452
REMARK  186  A    between atoms: _451  and  _454
REMARK  187  A    between atoms: _454  and  _455
REMARK  188  A    between atoms: _458  and  _460
REMARK  189  A    between atoms: _460  and  _461
REMARK  190  A    between atoms: _463  and  _465
REMARK  191  A    between atoms: _465  and  _466
REMARK  192  A    between atoms: _468  and  _470
REMARK  193  A    between atoms: _470  and  _471
REMARK  194  A    between atoms: _470  and  _473
REMARK  195  A    between atoms: _473  and  _474
REMARK  196  A    between atoms: _477  and  _479
REMARK  197  A    between atoms: _479  and  _480
REMARK  198  A    between atoms: _482  and  _484
REMARK  199  A    between atoms: _484  and  _485
REMARK  200  A    between atoms: _487  and  _489
REMARK  201  A    between atoms: _489  and  _490
REMARK  202  A    between atoms: _489  and  _492
REMARK  203  A    between atoms: _492  and  _493
REMARK  204  A    between atoms: _496  and  _498
REMARK  205  A    between atoms: _498  and  _499
REMARK  206  A    between atoms: _498  and  _501
REMARK  207  A    between atoms: _504  and  _506
REMARK  208  A    between atoms: _506  and  _507
REMARK  209  A    between atoms: _506  and  _509
REMARK  210  A    between atoms: _509  and  _510
REMARK  211  A    between atoms: _514  and  _515
REMARK  212  A    between atoms: _520  and  _522
REMARK  213  A    between atoms: _522  and  _523
REMARK  214  A    between atoms: _522  and  _525
REMARK  215  A    between atoms: _525  and  _526
REMARK  216  A    between atoms: _530  and  _531
REMARK  217  A    between atoms: _536  and  _538
REMARK  218  A    between atoms: _538  and  _539
REMARK  219  A    between atoms: _542  and  _544
REMARK  220  A    between atoms: _544  and  _545
REMARK  221  A    between atoms: _544  and  _547
REMARK  222  A    between atoms: _547  and  _548
REMARK  223  A    between atoms: _553  and  _555
REMARK  224  A    between atoms: _555  and  _556
REMARK  225  A    between atoms: _555  and  _558
REMARK  226  A    between atoms: _558  and  _559
REMARK  227  A    between atoms: _562  and  _564
REMARK  228  A    between atoms: _564  and  _565
REMARK  229  A    between atoms: _564  and  _567
REMARK  230  A    between atoms: _567  and  _568
REMARK  231  A    between atoms: _571  and  _573
REMARK  232  A    between atoms: _573  and  _574
REMARK  233  A    between atoms: _576  and  _578
REMARK  234  A    between atoms: _578  and  _579
REMARK  235  A    between atoms: _578  and  _581
REMARK  236  A    between atoms: _581  and  _582
REMARK  237  A    between atoms: _582  and  _583
REMARK  238  A    between atoms: _583  and  _584
REMARK                            x       y       z     vdW  Elec       q    Type
REMARK                         _______ _______ _______ _____ _____    ______ ____
ROOT
ATOM      1  CA  LEU A   1      17.953 -42.062   1.128  0.00  0.00    +0.133 C 
ENDROOT
BRANCH   1   2
ATOM      2  N   LEU A   1      17.198 -40.844   0.917  0.00  0.00    -0.239 NA
ATOM      3  H   LEU A   1      17.036 -40.196   1.714  0.00  0.00    +0.142 HD
ENDBRANCH   1   2
BRANCH   1   4
ATOM      4  C   LEU A   1      17.047 -43.046   1.853  0.00  0.00    +0.224 C 
ATOM      5  O   LEU A   1      16.256 -42.661   2.713  0.00  0.00    -0.287 OA
ENDBRANCH   1   4
BRANCH   1   6
ATOM      6  CB  LEU A   1      19.214 -41.766   1.952  0.00  0.00    +0.025 C 
BRANCH   6   7
ATOM      7  CG  LEU A   1      20.041 -40.567   1.455  0.00  0.00    +0.002 C 
ATOM      8  CD2 LEU A   1      21.252 -40.347   2.370  0.00  0.00    +0.000 C 
ATOM      9  CD1 LEU A   1      20.492 -40.808   0.025  0.00  0.00    +0.000 C 
ENDBRANCH   6   7
ENDBRANCH   1   6
TORSDOF 4
REMARK  Name = ../refined-set-2016/2fle/2fle_pocket.pdb
REMARK  238 active torsions:
REMARK  status: ('A' for Active; 'I' for Inactive)
REMARK    1  A    between atoms: _1  and  _3
REMARK    2  A    between atoms: _3  and  _4
REMARK    3  A    between atoms: _3  and  _6
REMARK    4  A    between atoms: _6  and  _7
REMARK    5  A    between atoms: _7  and  _8
REMARK    6  A    between atoms: _8  and  _9
REMARK    7  A    between atoms: _19  and  _20
REMARK    8  A    between atoms: _25  and  _27
REMARK    9  A    between atoms: _27  and  _28
REMARK   10  A    between atoms: _27  and  _30
REMARK   11  A    between atoms: _30  and  _31
REMARK   12  A    between atoms: _34  and  _36
REMARK   13  A    between atoms: _36  and  _37
REMARK   14  A    between atoms: _36  and  _39
REMARK   15  A    between atoms: _39  and  _40
REMARK   16  A    between atoms: _43  and  _45
REMARK   17  A    between atoms: _45  and  _46
REMARK   18  A    between atoms: _45  and  _48
REMARK   19  A    between atoms: _48  and  _49
REMARK   20  A    between atoms: _52  and  _54
REMARK   21  A    between atoms: _54  and  _55
REMARK   22  A    between atoms: _54  and  _57
REMARK   23  A    between atoms: _57  and  _58
REMARK   24  A    between atoms: _61  and  _63
REMARK   25  A    between atoms: _63  and  _64
REMARK   26  A    between atoms: _63  and  _66
REMARK   27  A    between atoms: _66  and  _67
REMARK   28  A    between atoms: _70  and  _72
REMARK   29  A    between atoms: _72  and  _73
REMARK   30  A    between atoms: _75  and  _77
REMARK   31  A    between atoms: _77  and  _78
REMARK   32  A    between atoms: _81  and  _83
REMARK   33  A    between atoms: _83  and  _84
REMARK   34  A    between atoms: _83  and  _86
REMARK   35  A    between atoms: _86  and  _87
REMARK   36  A    between atoms: _90  and  _92
REMARK   37  A    between atoms: _92  and  _93
REMARK   38  A    between atoms: _92  and  _95
REMARK   39  A    between atoms: _95  and  _96
REMARK   40  A    between atoms: _99  and  _101
REMARK   41  A    between atoms: _101  and  _102
REMARK   42  A    between atoms: _101  and  _104
REMARK   43  A    between atoms: _104  and  _105
REMARK   44  A    between atoms: _108  and  _110
REMARK   45  A    between atoms: _110  and  _111
REMARK   46  A    between atoms: _110  and  _113
REMARK   47  A    between atoms: _116  and  _118
REMARK   48  A    between atoms: _118  and  _119
REMARK   49  A    between atoms: _118  and  _121
REMARK   50  A    between atoms: _121  and  _122
REMARK   51  A    between atoms: _125  and  _127
REMARK   52  A    between atoms: _127  and  _128
REMARK   53  A    between atoms: _127  and  _130
REMARK   54  A    between atoms: _130  and  _131
REMARK   55  A    between atoms: _131  and  _132
REMARK   56  A    between atoms: _132  and  _133
REMARK   57  A    between atoms: _133  and  _134
REMARK   58  A    between atoms: _138  and  _140
REMARK   59  A    between atoms: _140  and  _141
REMARK   60  A    between atoms: _140  and  _143
REMARK   61  A    between atoms: _143  and  _144
REMARK   62  A    between atoms: _144  and  _145
REMARK   63  A    between atoms: _147  and  _149
REMARK   64  A    between atoms: _149  and  _150
REMARK   65  A    between atoms: _149  and  _152
REMARK   66  A    between atoms: _152  and  _153
REMARK   67  A    between atoms: _156  and  _158
REMARK   68  A    between atoms: _158  and  _159
REMARK   69  A    between atoms: _161  and  _163
REMARK   70  A    between atoms: _163  and  _164
REMARK   71  A    between atoms: _166  and  _168
REMARK   72  A    between atoms: _168  and  _169
REMARK   73  A    between atoms: _168  and  _171
REMARK   74  A    between atoms: _171  and  _172
REMARK   75  A    between atoms: _175  and  _177
REMARK   76  A    between atoms: _177  and  _178
REMARK   77  A    between atoms: _180  and  _182
REMARK   78  A    between atoms: _182  and  _183
REMARK   79  A    between atoms: _185  and  _187
REMARK   80  A    between atoms: _187  and  _188
REMARK   81  A    between atoms: _187  and  _190
REMARK   82  A    between atoms: _190  and  _191
REMARK   83  A    between atoms: _197  and  _199
REMARK   84  A    between atoms: _199  and  _200
REMARK   85  A    between atoms: _199  and  _202
REMARK   86  A    between atoms: _202  and  _203
REMARK   87  A    between atoms: _206  and  _208
REMARK   88  A    between atoms: _208  and  _209
REMARK   89  A    between atoms: _208  and  _211
REMARK   90  A    between atoms: _214  and  _216
REMARK   91  A    between atoms: _216  and  _217
REMARK   92  A    between atoms: _216  and  _219
REMARK   93  A    between atoms: _219  and  _220
REMARK   94  A    between atoms: _224  and  _225
REMARK   95  A    between atoms: _230  and  _232
REMARK   96  A    between atoms: _232  and  _233
REMARK   97  A    between atoms: _232  and  _235
REMARK   98  A    between atoms: _235  and  _236
REMARK   99  A    between atoms: _240  and  _241
REMARK  100  A    between atoms: _246  and  _248
REMARK  101  A    between atoms: _248  and  _249
REMARK  102  A    between atoms: _252  and  _254
REMARK  103  A    between atoms: _254  and  _255
REMARK  104  A    between atoms: _254  and  _257
REMARK  105  A    between atoms: _257  and  _258
REMARK  106  A    between atoms: _263  and  _265
REMARK  107  A    between atoms: _265  and  _266
REMARK  108  A    between atoms: _265  and  _268
REMARK  109  A    between atoms: _268  and  _269
REMARK  110  A    between atoms: _272  and  _274
REMARK  111  A    between atoms: _274  and  _275
REMARK  112  A    between atoms: _274  and  _277
REMARK  113  A    between atoms: _277  and  _278
REMARK  114  A    between atoms: _281  and  _283
REMARK  115  A    between atoms: _283  and  _284
REMARK  116  A    between atoms: _286  and  _288
REMARK  117  A    between atoms: _288  and  _289
REMARK  118  A    between atoms: _288  and  _291
REMARK  119  A    between atoms: _291  and  _292
REMARK  120  A    between atoms: _292  and  _293
REMARK  121  A    between atoms: _293  and  _294
REMARK  122  A    between atoms: _303  and  _305
REMARK  123  A    between atoms: _305  and  _306
REMARK  124  A    between atoms: _305  and  _308
REMARK  125  A    between atoms: _308  and  _309
REMARK  126  A    between atoms: _309  and  _310
REMARK  127  A    between atoms: _310  and  _311
REMARK  128  A    between atoms: _321  and  _322
REMARK  129  A    between atoms: _327  and  _329
REMARK  130  A    between atoms: _329  and  _330
REMARK  131  A    between atoms: _329  and  _332
REMARK  132  A    between atoms: _332  and  _333
REMARK  133  A    between atoms: _336  and  _338
REMARK  134  A    between atoms: _338  and  _339
REMARK  135  A    between atoms: _338  and  _341
REMARK  136  A    between atoms: _341  and  _342
REMARK  137  A    between atoms: _345  and  _347
REMARK  138  A    between atoms: _347  and  _348
REMARK  139  A    between atoms: _347  and  _350
REMARK  140  A    between atoms: _350  and  _351
REMARK  141  A    between atoms: _354  and  _356
REMARK  142  A    between atoms: _356  and  _357
REMARK  143  A    between atoms: _356  and  _359
REMARK  144  A    between atoms: _359  and  _360
REMARK  145  A    between atoms: _363  and  _365
REMARK  146  A    between atoms: _365  and  _366
REMARK  147  A    between atoms: _365  and  _368
REMARK  148  A    between atoms: _368  and  _369
REMARK  149  A    between atoms: _372  and  _374
REMARK  150  A    between atoms: _374  and  _375
REMARK  151  A    between atoms: _377  and  _379
REMARK  152  A    between atoms: _379  and  _380
REMARK  153  A    between atoms: _383  and  _385
REMARK  154  A    between atoms: _385  and  _386
REMARK  155  A    between atoms: _385  and  _388
REMARK  156  A    between atoms: _388  and  _389
REMARK  157  A    between atoms: _392  and  _394
REMARK  158  A    between atoms: _394  and  _395
REMARK  159  A    between atoms: _394  and  _397
REMARK  160  A    between atoms: _397  and  _398
REMARK  161  A    between atoms: _401  and  _403
REMARK  162  A    between atoms: _403  and  _404
REMARK  163  A    between atoms: _403  and  _406
REMARK  164  A    between atoms: _406  and  _407
REMARK  165  A    between atoms: _410  and  _412
REMARK  166  A    between atoms: _412  and  _413
REMARK  167  A    between atoms: _412  and  _415
REMARK  168  A    between atoms: _418  and  _420
REMARK  169  A    between atoms: _420  and  _421
REMARK  170  A    between atoms: _420  and  _423
REMARK  171  A    between atoms: _423  and  _424
REMARK  172  A    between atoms: _427  and  _429
REMARK  173  A    between atoms: _429  and  _430
REMARK  174  A    between atoms: _429  and  _432
REMARK  175  A    between atoms: _432  and  _433
REMARK  176  A    between atoms: _433  and  _434
REMARK  177  A    between atoms: _434  and  _435
REMARK  178  A    between atoms: _435  and  _436
REMARK  179  A    between atoms: _440  and  _442
REMARK  180  A    between atoms: _442  and  _443
REMARK  181  A    between atoms: _442  and  _445
REMARK  182  A    between atoms: _445  and  _446
REMARK  183  A    between atoms: _446  and  _447
REMARK  184  A    between atoms: _449  and  _451
REMARK  185  A    between atoms: _451  and  _452
REMARK  186  A    between atoms: _451  and  _454
REMARK  187  A    between atoms: _454  and  _455
REMARK  188  A    between atoms: _458  and  _460
REMARK  189  A    between atoms: _460  and  _461
REMARK  190  A    between atoms: _463  and  _465
REMARK  191  A    between atoms: _465  and  _466
REMARK  192  A    between atoms: _468  and  _470
REMARK  193  A    between atoms: _470  and  _471
REMARK  194  A    between atoms: _470  and  _473
REMARK  195  A    between atoms: _473  and  _474
REMARK  196  A    between atoms: _477  and  _479
REMARK  197  A    between atoms: _479  and  _480
REMARK  198  A    between atoms: _482  and  _484
REMARK  199  A    between atoms: _484  and  _485
REMARK  200  A    between atoms: _487  and  _489
REMARK  201  A    between atoms: _489  and  _490
REMARK  202  A    between atoms: _489  and  _492
REMARK  203  A    between atoms: _492  and  _493
REMARK  204  A    between atoms: _496  and  _498
REMARK  205  A    between atoms: _498  and  _499
REMARK  206  A    between atoms: _498  and  _501
REMARK  207  A    between atoms: _504  and  _506
REMARK  208  A    between atoms: _506  and  _507
REMARK  209  A    between atoms: _506  and  _509
REMARK  210  A    between atoms: _509  and  _510
REMARK  211  A    between atoms: _514  and  _515
REMARK  212  A    between atoms: _520  and  _522
REMARK  213  A    between atoms: _522  and  _523
REMARK  214  A    between atoms: _522  and  _525
REMARK  215  A    between atoms: _525  and  _526
REMARK  216  A    between atoms: _530  and  _531
REMARK  217  A    between atoms: _536  and  _538
REMARK  218  A    between atoms: _538  and  _539
REMARK  219  A    between atoms: _542  and  _544
REMARK  220  A    between atoms: _544  and  _545
REMARK  221  A    between atoms: _544  and  _547
REMARK  222  A    between atoms: _547  and  _548
REMARK  223  A    between atoms: _553  and  _555
REMARK  224  A    between atoms: _555  and  _556
REMARK  225  A    between atoms: _555  and  _558
REMARK  226  A    between atoms: _558  and  _559
REMARK  227  A    between atoms: _562  and  _564
REMARK  228  A    between atoms: _564  and  _565
REMARK  229  A    between atoms: _564  and  _567
REMARK  230  A    between atoms: _567  and  _568
REMARK  231  A    between atoms: _571  and  _573
REMARK  232  A    between atoms: _573  and  _574
REMARK  233  A    between atoms: _576  and  _578
REMARK  234  A    between atoms: _578  and  _579
REMARK  235  A    between atoms: _578  and  _581
REMARK  236  A    between atoms: _581  and  _582
REMARK  237  A    between atoms: _582  and  _583
REMARK  238  A    between atoms: _583  and  _584
REMARK                            x       y       z     vdW  Elec       q    Type
REMARK                         _______ _______ _______ _____ _____    ______ ____
ROOT
ATOM      1  C   ASN A   5      13.121 -39.959   9.714  0.00  0.00    +0.241 C 
ATOM      2  O   ASN A   5      12.608 -39.330  10.637  0.00  0.00    -0.273 OA
ATOM      3  N   ILE A   6      14.109 -39.486   8.964  0.00  0.00    -0.297 N 
ATOM      4  H   ILE A   6      14.464 -40.069   8.179  0.00  0.00    +0.150 HD
ENDROOT
BRANCH   1   5
ATOM      5  CA  ASN A   5      12.630 -41.352   9.358  0.00  0.00    +0.158 C 
BRANCH   5   7
ATOM      6  C   ALA A   4      13.878 -42.613  11.031  0.00  0.00    +0.241 C 
ATOM      7  N   ASN A   5      12.714 -42.162  10.568  0.00  0.00    -0.297 N 
ATOM      8  H   ASN A   5      11.841 -42.394  11.083  0.00  0.00    +0.150 HD
ATOM      9  O   ALA A   4      14.954 -42.403  10.472  0.00  0.00    -0.273 OA
BRANCH   6  10
ATOM     10  CA  ALA A   4      13.820 -43.428  12.310  0.00  0.00    +0.149 C 
ATOM     11  CB  ALA A   4      13.792 -42.497  13.508  0.00  0.00    +0.031 C 
BRANCH  10  14
ATOM     12  C   PRO A   3      14.892 -45.417  13.209  0.00  0.00    +0.241 C 
ATOM     13  O   PRO A   3      13.906 -45.678  13.899  0.00  0.00    -0.273 OA
ATOM     14  N   ALA A   4      14.948 -44.349  12.416  0.00  0.00    -0.297 N 
ATOM     15  H   ALA A   4      15.810 -44.168  11.863  0.00  0.00    +0.150 HD
BRANCH  12  18
ATOM     16  C   THR A   2      16.761 -46.344  10.860  0.00  0.00    +0.246 C 
ATOM     17  N   PRO A   3      17.056 -46.035  12.134  0.00  0.00    -0.272 N 
ATOM     18  CA  PRO A   3      16.132 -46.320  13.240  0.00  0.00    +0.152 C 
ATOM     19  CB  PRO A   3      16.983 -46.064  14.484  0.00  0.00    +0.031 C 
ATOM     20  CG  PRO A   3      18.389 -46.288  14.001  0.00  0.00    +0.024 C 
ATOM     21  CD  PRO A   3      18.370 -45.622  12.655  0.00  0.00    +0.094 C 
ATOM     22  O   THR A   2      15.711 -46.897  10.553  0.00  0.00    -0.273 OA
BRANCH  16  23
ATOM     23  CA  THR A   2      17.791 -45.999   9.790  0.00  0.00    +0.176 C 
BRANCH  23  26
ATOM     24  C   PRO A   1      18.423 -48.213   9.041  0.00  0.00    +0.239 C 
ATOM     25  O   PRO A   1      19.058 -48.411  10.076  0.00  0.00    -0.274 OA
ATOM     26  N   THR A   2      17.787 -47.070   8.802  0.00  0.00    -0.295 N 
ATOM     27  H   THR A   2      17.282 -46.939   7.902  0.00  0.00    +0.150 HD
BRANCH  24  29
ATOM     28  N   PRO A   1      18.525 -48.875   6.582  0.00  0.00    -0.210 NA
ATOM     29  CA  PRO A   1      18.337 -49.296   7.970  0.00  0.00    +0.149 C 
ATOM     30  CB  PRO A   1      19.411 -50.363   8.142  0.00  0.00    +0.028 C 
ATOM     31  CG  PRO A   1      20.530 -49.808   7.333  0.00  0.00    +0.021 C 
ATOM     32  CD  PRO A   1      19.830 -49.336   6.072  0.00  0.00    +0.089 C 
ENDBRANCH  24  29
ENDBRANCH  23  26
BRANCH  23  33
ATOM     33  CB  THR A   2      17.413 -44.639   9.165  0.00  0.00    +0.137 C 
ATOM     34  CG2 THR A   2      16.101 -44.746   8.398  0.00  0.00    +0.034 C 
BRANCH  33  35
ATOM     35  OG1 THR A   2      17.274 -43.660  10.205  0.00  0.00    -0.382 OA
ATOM     36  HG1 THR A   2      17.032 -42.787   9.805  0.00  0.00    +0.210 HD
ENDBRANCH  33  35
ENDBRANCH  23  33
ENDBRANCH  16  23
ENDBRANCH  12  18
ENDBRANCH  10  14
ENDBRANCH   6  10
ENDBRANCH   5   7
BRANCH   5  37
ATOM     37  CB  ASN A   5      11.192 -41.271   8.846  0.00  0.00    +0.114 C 
BRANCH  37  38
ATOM     38  CG  ASN A   5      10.602 -42.635   8.545  0.00  0.00    +0.222 C 
ATOM     39  ND2 ASN A   5       9.363 -42.849   8.968  0.00  0.00    -0.329 N 
ATOM     40 HD21 ASN A   5       8.855 -42.105   9.487  0.00  0.00    +0.145 HD
ATOM     41 HD22 ASN A   5       8.900 -43.761   8.781  0.00  0.00    +0.145 HD
ATOM     42  OD1 ASN A   5      11.249 -43.480   7.927  0.00  0.00    -0.275 OA
ENDBRANCH  37  38
ENDBRANCH   5  37
ENDBRANCH   1   5
BRANCH   3  43
ATOM     43  CA  ILE A   6      14.716 -38.179   9.198  0.00  0.00    +0.149 C 
BRANCH  43  44
ATOM     44  C   ILE A   6      14.567 -37.242   8.007  0.00  0.00    +0.241 C 
ATOM     45  N   ILE A   7      14.068 -36.033   8.240  0.00  0.00    -0.297 N 
ATOM     46  H   ILE A   7      13.741 -35.786   9.196  0.00  0.00    +0.150 HD
ATOM     47  O   ILE A   6      14.899 -37.613   6.886  0.00  0.00    -0.273 OA
BRANCH  45  48
ATOM     48  CA  ILE A   7      13.975 -35.047   7.164  0.00  0.00    +0.149 C 
BRANCH  48  49
ATOM     49  C   ILE A   7      15.164 -34.122   7.428  0.00  0.00    +0.241 C 
ATOM     50  O   ILE A   7      15.165 -33.392   8.425  0.00  0.00    -0.273 OA
ATOM     51  N   GLY A   8      16.168 -34.164   6.553  0.00  0.00    -0.295 N 
ATOM     52  H   GLY A   8      16.102 -34.794   5.728  0.00  0.00    +0.150 HD
BRANCH  51  53
ATOM     53  CA  GLY A   8      17.355 -33.342   6.733  0.00  0.00    +0.176 C 
BRANCH  53  54
ATOM     54  C   GLY A   8      17.304 -31.981   6.061  0.00  0.00    +0.243 C 
ATOM     55  N   ARG A   9      18.388 -31.220   6.183  0.00  0.00    -0.298 N 
ATOM     56  H   ARG A   9      19.218 -31.592   6.687  0.00  0.00    +0.150 HD
ATOM     57  O   GLY A   8      16.318 -31.628   5.418  0.00  0.00    -0.273 OA
BRANCH  55  58
ATOM     58  CA  ARG A   9      18.434 -29.874   5.624  0.00  0.00    +0.137 C 
BRANCH  58  59
ATOM     59  C   ARG A   9      18.193 -29.734   4.127  0.00  0.00    +0.227 C 
ATOM     60  O   ARG A   9      17.757 -28.673   3.679  0.00  0.00    -0.286 OA
ENDBRANCH  58  59
BRANCH  58  61
ATOM     61  CB  ARG A   9      19.754 -29.185   6.004  0.00  0.00    +0.031 C 
BRANCH  61  62
ATOM     62  CG  ARG A   9      19.877 -28.881   7.505  0.00  0.00    +0.045 C 
BRANCH  62  63
ATOM     63  CD  ARG A   9      21.146 -28.067   7.842  0.00  0.00    +0.174 C 
BRANCH  63  64
ATOM     64  NE  ARG A   9      22.363 -28.728   7.372  0.00  0.00    -0.265 N 
ATOM     65  HE  ARG A   9      22.748 -29.502   7.951  0.00  0.00    +0.259 HD
ATOM     66  CZ  ARG A   9      23.012 -28.408   6.255  0.00  0.00    +0.342 C 
ATOM     67  NH2 ARG A   9      24.083 -29.098   5.895  0.00  0.00    -0.292 N 
ATOM     68 HH21 ARG A   9      24.415 -29.888   6.485  0.00  0.00    +0.255 HD
ATOM     69 HH22 ARG A   9      24.592 -28.850   5.023  0.00  0.00    +0.255 HD
ATOM     70  NH1 ARG A   9      22.577 -27.422   5.482  0.00  0.00    -0.292 N 
ATOM     71 HH11 ARG A   9      21.722 -26.892   5.747  0.00  0.00    +0.255 HD
ATOM     72 HH12 ARG A   9      23.091 -27.179   4.611  0.00  0.00    +0.255 HD
ENDBRANCH  63  64
ENDBRANCH  62  63
ENDBRANCH  61  62
ENDBRANCH  58  61
ENDBRANCH  55  58
ENDBRANCH  53  54
ENDBRANCH  51  53
ENDBRANCH  48  49
BRANCH  48  73
ATOM     73  CB  ILE A   7      12.681 -34.203   7.234  0.00  0.00    +0.027 C 
ATOM     74  CG2 ILE A   7      12.656 -33.200   6.080  0.00  0.00    +0.002 C 
BRANCH  73  75
ATOM     75  CG1 ILE A   7      11.453 -35.115   7.187  0.00  0.00    +0.002 C 
ATOM     76  CD1 ILE A   7      11.372 -35.977   5.948  0.00  0.00    +0.000 C 
ENDBRANCH  73  75
ENDBRANCH  48  73
ENDBRANCH  45  48
ENDBRANCH  43  44
BRANCH  43  77
ATOM     77  CB  ILE A   6      16.240 -38.338   9.453  0.00  0.00    +0.027 C 
ATOM     78  CG2 ILE A   6      16.907 -36.966   9.574  0.00  0.00    +0.002 C 
BRANCH  77  79
ATOM     79  CG1 ILE A   6      16.473 -39.187  10.698  0.00  0.00    +0.002 C 
ATOM     80  CD1 ILE A   6      17.867 -39.752  10.780  0.00  0.00    +0.000 C 
ENDBRANCH  77  79
ENDBRANCH  43  77
ENDBRANCH   3  43
TORSDOF 28
REMARK  Name = ../refined-set-2016/2fle/2fle_pocket.pdb
REMARK  238 active torsions:
REMARK  status: ('A' for Active; 'I' for Inactive)
REMARK    1  A    between atoms: _1  and  _3
REMARK    2  A    between atoms: _3  and  _4
REMARK    3  A    between atoms: _3  and  _6
REMARK    4  A    between atoms: _6  and  _7
REMARK    5  A    between atoms: _7  and  _8
REMARK    6  A    between atoms: _8  and  _9
REMARK    7  A    between atoms: _19  and  _20
REMARK    8  A    between atoms: _25  and  _27
REMARK    9  A    between atoms: _27  and  _28
REMARK   10  A    between atoms: _27  and  _30
REMARK   11  A    between atoms: _30  and  _31
REMARK   12  A    between atoms: _34  and  _36
REMARK   13  A    between atoms: _36  and  _37
REMARK   14  A    between atoms: _36  and  _39
REMARK   15  A    between atoms: _39  and  _40
REMARK   16  A    between atoms: _43  and  _45
REMARK   17  A    between atoms: _45  and  _46
REMARK   18  A    between atoms: _45  and  _48
REMARK   19  A    between atoms: _48  and  _49
REMARK   20  A    between atoms: _52  and  _54
REMARK   21  A    between atoms: _54  and  _55
REMARK   22  A    between atoms: _54  and  _57
REMARK   23  A    between atoms: _57  and  _58
REMARK   24  A    between atoms: _61  and  _63
REMARK   25  A    between atoms: _63  and  _64
REMARK   26  A    between atoms: _63  and  _66
REMARK   27  A    between atoms: _66  and  _67
REMARK   28  A    between atoms: _70  and  _72
REMARK   29  A    between atoms: _72  and  _73
REMARK   30  A    between atoms: _75  and  _77
REMARK   31  A    between atoms: _77  and  _78
REMARK   32  A    between atoms: _81  and  _83
REMARK   33  A    between atoms: _83  and  _84
REMARK   34  A    between atoms: _83  and  _86
REMARK   35  A    between atoms: _86  and  _87
REMARK   36  A    between atoms: _90  and  _92
REMARK   37  A    between atoms: _92  and  _93
REMARK   38  A    between atoms: _92  and  _95
REMARK   39  A    between atoms: _95  and  _96
REMARK   40  A    between atoms: _99  and  _101
REMARK   41  A    between atoms: _101  and  _102
REMARK   42  A    between atoms: _101  and  _104
REMARK   43  A    between atoms: _104  and  _105
REMARK   44  A    between atoms: _108  and  _110
REMARK   45  A    between atoms: _110  and  _111
REMARK   46  A    between atoms: _110  and  _113
REMARK   47  A    between atoms: _116  and  _118
REMARK   48  A    between atoms: _118  and  _119
REMARK   49  A    between atoms: _118  and  _121
REMARK   50  A    between atoms: _121  and  _122
REMARK   51  A    between atoms: _125  and  _127
REMARK   52  A    between atoms: _127  and  _128
REMARK   53  A    between atoms: _127  and  _130
REMARK   54  A    between atoms: _130  and  _131
REMARK   55  A    between atoms: _131  and  _132
REMARK   56  A    between atoms: _132  and  _133
REMARK   57  A    between atoms: _133  and  _134
REMARK   58  A    between atoms: _138  and  _140
REMARK   59  A    between atoms: _140  and  _141
REMARK   60  A    between atoms: _140  and  _143
REMARK   61  A    between atoms: _143  and  _144
REMARK   62  A    between atoms: _144  and  _145
REMARK   63  A    between atoms: _147  and  _149
REMARK   64  A    between atoms: _149  and  _150
REMARK   65  A    between atoms: _149  and  _152
REMARK   66  A    between atoms: _152  and  _153
REMARK   67  A    between atoms: _156  and  _158
REMARK   68  A    between atoms: _158  and  _159
REMARK   69  A    between atoms: _161  and  _163
REMARK   70  A    between atoms: _163  and  _164
REMARK   71  A    between atoms: _166  and  _168
REMARK   72  A    between atoms: _168  and  _169
REMARK   73  A    between atoms: _168  and  _171
REMARK   74  A    between atoms: _171  and  _172
REMARK   75  A    between atoms: _175  and  _177
REMARK   76  A    between atoms: _177  and  _178
REMARK   77  A    between atoms: _180  and  _182
REMARK   78  A    between atoms: _182  and  _183
REMARK   79  A    between atoms: _185  and  _187
REMARK   80  A    between atoms: _187  and  _188
REMARK   81  A    between atoms: _187  and  _190
REMARK   82  A    between atoms: _190  and  _191
REMARK   83  A    between atoms: _197  and  _199
REMARK   84  A    between atoms: _199  and  _200
REMARK   85  A    between atoms: _199  and  _202
REMARK   86  A    between atoms: _202  and  _203
REMARK   87  A    between atoms: _206  and  _208
REMARK   88  A    between atoms: _208  and  _209
REMARK   89  A    between atoms: _208  and  _211
REMARK   90  A    between atoms: _214  and  _216
REMARK   91  A    between atoms: _216  and  _217
REMARK   92  A    between atoms: _216  and  _219
REMARK   93  A    between atoms: _219  and  _220
REMARK   94  A    between atoms: _224  and  _225
REMARK   95  A    between atoms: _230  and  _232
REMARK   96  A    between atoms: _232  and  _233
REMARK   97  A    between atoms: _232  and  _235
REMARK   98  A    between atoms: _235  and  _236
REMARK   99  A    between atoms: _240  and  _241
REMARK  100  A    between atoms: _246  and  _248
REMARK  101  A    between atoms: _248  and  _249
REMARK  102  A    between atoms: _252  and  _254
REMARK  103  A    between atoms: _254  and  _255
REMARK  104  A    between atoms: _254  and  _257
REMARK  105  A    between atoms: _257  and  _258
REMARK  106  A    between atoms: _263  and  _265
REMARK  107  A    between atoms: _265  and  _266
REMARK  108  A    between atoms: _265  and  _268
REMARK  109  A    between atoms: _268  and  _269
REMARK  110  A    between atoms: _272  and  _274
REMARK  111  A    between atoms: _274  and  _275
REMARK  112  A    between atoms: _274  and  _277
REMARK  113  A    between atoms: _277  and  _278
REMARK  114  A    between atoms: _281  and  _283
REMARK  115  A    between atoms: _283  and  _284
REMARK  116  A    between atoms: _286  and  _288
REMARK  117  A    between atoms: _288  and  _289
REMARK  118  A    between atoms: _288  and  _291
REMARK  119  A    between atoms: _291  and  _292
REMARK  120  A    between atoms: _292  and  _293
REMARK  121  A    between atoms: _293  and  _294
REMARK  122  A    between atoms: _303  and  _305
REMARK  123  A    between atoms: _305  and  _306
REMARK  124  A    between atoms: _305  and  _308
REMARK  125  A    between atoms: _308  and  _309
REMARK  126  A    between atoms: _309  and  _310
REMARK  127  A    between atoms: _310  and  _311
REMARK  128  A    between atoms: _321  and  _322
REMARK  129  A    between atoms: _327  and  _329
REMARK  130  A    between atoms: _329  and  _330
REMARK  131  A    between atoms: _329  and  _332
REMARK  132  A    between atoms: _332  and  _333
REMARK  133  A    between atoms: _336  and  _338
REMARK  134  A    between atoms: _338  and  _339
REMARK  135  A    between atoms: _338  and  _341
REMARK  136  A    between atoms: _341  and  _342
REMARK  137  A    between atoms: _345  and  _347
REMARK  138  A    between atoms: _347  and  _348
REMARK  139  A    between atoms: _347  and  _350
REMARK  140  A    between atoms: _350  and  _351
REMARK  141  A    between atoms: _354  and  _356
REMARK  142  A    between atoms: _356  and  _357
REMARK  143  A    between atoms: _356  and  _359
REMARK  144  A    between atoms: _359  and  _360
REMARK  145  A    between atoms: _363  and  _365
REMARK  146  A    between atoms: _365  and  _366
REMARK  147  A    between atoms: _365  and  _368
REMARK  148  A    between atoms: _368  and  _369
REMARK  149  A    between atoms: _372  and  _374
REMARK  150  A    between atoms: _374  and  _375
REMARK  151  A    between atoms: _377  and  _379
REMARK  152  A    between atoms: _379  and  _380
REMARK  153  A    between atoms: _383  and  _385
REMARK  154  A    between atoms: _385  and  _386
REMARK  155  A    between atoms: _385  and  _388
REMARK  156  A    between atoms: _388  and  _389
REMARK  157  A    between atoms: _392  and  _394
REMARK  158  A    between atoms: _394  and  _395
REMARK  159  A    between atoms: _394  and  _397
REMARK  160  A    between atoms: _397  and  _398
REMARK  161  A    between atoms: _401  and  _403
REMARK  162  A    between atoms: _403  and  _404
REMARK  163  A    between atoms: _403  and  _406
REMARK  164  A    between atoms: _406  and  _407
REMARK  165  A    between atoms: _410  and  _412
REMARK  166  A    between atoms: _412  and  _413
REMARK  167  A    between atoms: _412  and  _415
REMARK  168  A    between atoms: _418  and  _420
REMARK  169  A    between atoms: _420  and  _421
REMARK  170  A    between atoms: _420  and  _423
REMARK  171  A    between atoms: _423  and  _424
REMARK  172  A    between atoms: _427  and  _429
REMARK  173  A    between atoms: _429  and  _430
REMARK  174  A    between atoms: _429  and  _432
REMARK  175  A    between atoms: _432  and  _433
REMARK  176  A    between atoms: _433  and  _434
REMARK  177  A    between atoms: _434  and  _435
REMARK  178  A    between atoms: _435  and  _436
REMARK  179  A    between atoms: _440  and  _442
REMARK  180  A    between atoms: _442  and  _443
REMARK  181  A    between atoms: _442  and  _445
REMARK  182  A    between atoms: _445  and  _446
REMARK  183  A    between atoms: _446  and  _447
REMARK  184  A    between atoms: _449  and  _451
REMARK  185  A    between atoms: _451  and  _452
REMARK  186  A    between atoms: _451  and  _454
REMARK  187  A    between atoms: _454  and  _455
REMARK  188  A    between atoms: _458  and  _460
REMARK  189  A    between atoms: _460  and  _461
REMARK  190  A    between atoms: _463  and  _465
REMARK  191  A    between atoms: _465  and  _466
REMARK  192  A    between atoms: _468  and  _470
REMARK  193  A    between atoms: _470  and  _471
REMARK  194  A    between atoms: _470  and  _473
REMARK  195  A    between atoms: _473  and  _474
REMARK  196  A    between atoms: _477  and  _479
REMARK  197  A    between atoms: _479  and  _480
REMARK  198  A    between atoms: _482  and  _484
REMARK  199  A    between atoms: _484  and  _485
REMARK  200  A    between atoms: _487  and  _489
REMARK  201  A    between atoms: _489  and  _490
REMARK  202  A    between atoms: _489  and  _492
REMARK  203  A    between atoms: _492  and  _493
REMARK  204  A    between atoms: _496  and  _498
REMARK  205  A    between atoms: _498  and  _499
REMARK  206  A    between atoms: _498  and  _501
REMARK  207  A    between atoms: _504  and  _506
REMARK  208  A    between atoms: _506  and  _507
REMARK  209  A    between atoms: _506  and  _509
REMARK  210  A    between atoms: _509  and  _510
REMARK  211  A    between atoms: _514  and  _515
REMARK  212  A    between atoms: _520  and  _522
REMARK  213  A    between atoms: _522  and  _523
REMARK  214  A    between atoms: _522  and  _525
REMARK  215  A    between atoms: _525  and  _526
REMARK  216  A    between atoms: _530  and  _531
REMARK  217  A    between atoms: _536  and  _538
REMARK  218  A    between atoms: _538  and  _539
REMARK  219  A    between atoms: _542  and  _544
REMARK  220  A    between atoms: _544  and  _545
REMARK  221  A    between atoms: _544  and  _547
REMARK  222  A    between atoms: _547  and  _548
REMARK  223  A    between atoms: _553  and  _555
REMARK  224  A    between atoms: _555  and  _556
REMARK  225  A    between atoms: _555  and  _558
REMARK  226  A    between atoms: _558  and  _559
REMARK  227  A    between atoms: _562  and  _564
REMARK  228  A    between atoms: _564  and  _565
REMARK  229  A    between atoms: _564  and  _567
REMARK  230  A    between atoms: _567  and  _568
REMARK  231  A    between atoms: _571  and  _573
REMARK  232  A    between atoms: _573  and  _574
REMARK  233  A    between atoms: _576  and  _578
REMARK  234  A    between atoms: _578  and  _579
REMARK  235  A    between atoms: _578  and  _581
REMARK  236  A    between atoms: _581  and  _582
REMARK  237  A    between atoms: _582  and  _583
REMARK  238  A    between atoms: _583  and  _584
REMARK                            x       y       z     vdW  Elec       q    Type
REMARK                         _______ _______ _______ _____ _____    ______ ____
ROOT
ATOM      1  C   ARG A   1      24.661 -25.349  10.158  0.00  0.00    +0.241 C 
ATOM      2  N   PRO A   2      23.652 -25.527  11.031  0.00  0.00    -0.272 N 
ATOM      3  CA  PRO A   2      23.352 -24.561  12.089  0.00  0.00    +0.152 C 
ATOM      4  CB  PRO A   2      21.928 -24.928  12.489  0.00  0.00    +0.031 C 
ATOM      5  CG  PRO A   2      21.942 -26.415  12.362  0.00  0.00    +0.024 C 
ATOM      6  CD  PRO A   2      22.664 -26.626  11.036  0.00  0.00    +0.094 C 
ATOM      7  O   ARG A   1      25.392 -24.354  10.192  0.00  0.00    -0.273 OA
ENDROOT
BRANCH   3   8
ATOM      8  C   PRO A   2      24.335 -24.638  13.256  0.00  0.00    +0.241 C 
ATOM      9  O   PRO A   2      24.021 -25.162  14.329  0.00  0.00    -0.273 OA
ATOM     10  N   LEU A   3      25.525 -24.090  13.035  0.00  0.00    -0.298 N 
ATOM     11  H   LEU A   3      25.711 -23.642  12.115  0.00  0.00    +0.150 HD
BRANCH  10  12
ATOM     12  CA  LEU A   3      26.578 -24.097  14.043  0.00  0.00    +0.137 C 
BRANCH  12  13
ATOM     13  C   LEU A   3      26.571 -22.835  14.895  0.00  0.00    +0.227 C 
ATOM     14  O   LEU A   3      26.306 -21.737  14.397  0.00  0.00    -0.286 OA
ENDBRANCH  12  13
BRANCH  12  15
ATOM     15  CB  LEU A   3      27.943 -24.242  13.366  0.00  0.00    +0.028 C 
BRANCH  15  16
ATOM     16  CG  LEU A   3      28.158 -25.517  12.552  0.00  0.00    +0.002 C 
ATOM     17  CD2 LEU A   3      28.026 -26.736  13.461  0.00  0.00    +0.000 C 
ATOM     18  CD1 LEU A   3      29.534 -25.479  11.893  0.00  0.00    +0.000 C 
ENDBRANCH  15  16
ENDBRANCH  12  15
ENDBRANCH  10  12
ENDBRANCH   3   8
BRANCH   1  19
ATOM     19  CA  ARG A   1      24.872 -26.424   9.098  0.00  0.00    +0.145 C 
BRANCH  19  20
ATOM     20  N   ARG A   1      25.028 -25.761   7.803  0.00  0.00    -0.238 NA
ATOM     21  H   ARG A   1      25.901 -25.899   7.255  0.00  0.00    +0.142 HD
ENDBRANCH  19  20
BRANCH  19  22
ATOM     22  CB  ARG A   1      26.115 -27.260   9.422  0.00  0.00    +0.030 C 
BRANCH  22  23
ATOM     23  CG  ARG A   1      26.233 -28.511   8.569  0.00  0.00    +0.045 C 
BRANCH  23  24
ATOM     24  CD  ARG A   1      27.598 -29.187   8.679  0.00  0.00    +0.174 C 
BRANCH  24  25
ATOM     25  NE  ARG A   1      27.700 -30.288   7.722  0.00  0.00    -0.265 N 
ATOM     26  CZ  ARG A   1      28.818 -30.955   7.445  0.00  0.00    +0.342 C 
ATOM     27  NH2 ARG A   1      29.958 -30.647   8.052  0.00  0.00    -0.292 N 
ATOM     28 HH21 ARG A   1      29.983 -29.878   8.752  0.00  0.00    +0.255 HD
ATOM     29 HH22 ARG A   1      30.826 -31.175   7.828  0.00  0.00    +0.255 HD
ATOM     30  NH1 ARG A   1      28.798 -31.932   6.546  0.00  0.00    -0.292 N 
ATOM     31 HH11 ARG A   1      29.670 -32.455   6.327  0.00  0.00    +0.255 HD
ATOM     32 HH12 ARG A   1      27.911 -32.174   6.061  0.00  0.00    +0.255 HD
ATOM     33  HE  ARG A   1      26.834 -30.571   7.220  0.00  0.00    +0.259 HD
ENDBRANCH  24  25
ENDBRANCH  23  24
ENDBRANCH  22  23
ENDBRANCH  19  22
ENDBRANCH   1  19
TORSDOF 11
REMARK  Name = ../refined-set-2016/2fle/2fle_pocket.pdb
REMARK  238 active torsions:
REMARK  status: ('A' for Active; 'I' for Inactive)
REMARK    1  A    between atoms: _1  and  _3
REMARK    2  A    between atoms: _3  and  _4
REMARK    3  A    between atoms: _3  and  _6
REMARK    4  A    between atoms: _6  and  _7
REMARK    5  A    between atoms: _7  and  _8
REMARK    6  A    between atoms: _8  and  _9
REMARK    7  A    between atoms: _19  and  _20
REMARK    8  A    between atoms: _25  and  _27
REMARK    9  A    between atoms: _27  and  _28
REMARK   10  A    between atoms: _27  and  _30
REMARK   11  A    between atoms: _30  and  _31
REMARK   12  A    between atoms: _34  and  _36
REMARK   13  A    between atoms: _36  and  _37
REMARK   14  A    between atoms: _36  and  _39
REMARK   15  A    between atoms: _39  and  _40
REMARK   16  A    between atoms: _43  and  _45
REMARK   17  A    between atoms: _45  and  _46
REMARK   18  A    between atoms: _45  and  _48
REMARK   19  A    between atoms: _48  and  _49
REMARK   20  A    between atoms: _52  and  _54
REMARK   21  A    between atoms: _54  and  _55
REMARK   22  A    between atoms: _54  and  _57
REMARK   23  A    between atoms: _57  and  _58
REMARK   24  A    between atoms: _61  and  _63
REMARK   25  A    between atoms: _63  and  _64
REMARK   26  A    between atoms: _63  and  _66
REMARK   27  A    between atoms: _66  and  _67
REMARK   28  A    between atoms: _70  and  _72
REMARK   29  A    between atoms: _72  and  _73
REMARK   30  A    between atoms: _75  and  _77
REMARK   31  A    between atoms: _77  and  _78
REMARK   32  A    between atoms: _81  and  _83
REMARK   33  A    between atoms: _83  and  _84
REMARK   34  A    between atoms: _83  and  _86
REMARK   35  A    between atoms: _86  and  _87
REMARK   36  A    between atoms: _90  and  _92
REMARK   37  A    between atoms: _92  and  _93
REMARK   38  A    between atoms: _92  and  _95
REMARK   39  A    between atoms: _95  and  _96
REMARK   40  A    between atoms: _99  and  _101
REMARK   41  A    between atoms: _101  and  _102
REMARK   42  A    between atoms: _101  and  _104
REMARK   43  A    between atoms: _104  and  _105
REMARK   44  A    between atoms: _108  and  _110
REMARK   45  A    between atoms: _110  and  _111
REMARK   46  A    between atoms: _110  and  _113
REMARK   47  A    between atoms: _116  and  _118
REMARK   48  A    between atoms: _118  and  _119
REMARK   49  A    between atoms: _118  and  _121
REMARK   50  A    between atoms: _121  and  _122
REMARK   51  A    between atoms: _125  and  _127
REMARK   52  A    between atoms: _127  and  _128
REMARK   53  A    between atoms: _127  and  _130
REMARK   54  A    between atoms: _130  and  _131
REMARK   55  A    between atoms: _131  and  _132
REMARK   56  A    between atoms: _132  and  _133
REMARK   57  A    between atoms: _133  and  _134
REMARK   58  A    between atoms: _138  and  _140
REMARK   59  A    between atoms: _140  and  _141
REMARK   60  A    between atoms: _140  and  _143
REMARK   61  A    between atoms: _143  and  _144
REMARK   62  A    between atoms: _144  and  _145
REMARK   63  A    between atoms: _147  and  _149
REMARK   64  A    between atoms: _149  and  _150
REMARK   65  A    between atoms: _149  and  _152
REMARK   66  A    between atoms: _152  and  _153
REMARK   67  A    between atoms: _156  and  _158
REMARK   68  A    between atoms: _158  and  _159
REMARK   69  A    between atoms: _161  and  _163
REMARK   70  A    between atoms: _163  and  _164
REMARK   71  A    between atoms: _166  and  _168
REMARK   72  A    between atoms: _168  and  _169
REMARK   73  A    between atoms: _168  and  _171
REMARK   74  A    between atoms: _171  and  _172
REMARK   75  A    between atoms: _175  and  _177
REMARK   76  A    between atoms: _177  and  _178
REMARK   77  A    between atoms: _180  and  _182
REMARK   78  A    between atoms: _182  and  _183
REMARK   79  A    between atoms: _185  and  _187
REMARK   80  A    between atoms: _187  and  _188
REMARK   81  A    between atoms: _187  and  _190
REMARK   82  A    between atoms: _190  and  _191
REMARK   83  A    between atoms: _197  and  _199
REMARK   84  A    between atoms: _199  and  _200
REMARK   85  A    between atoms: _199  and  _202
REMARK   86  A    between atoms: _202  and  _203
REMARK   87  A    between atoms: _206  and  _208
REMARK   88  A    between atoms: _208  and  _209
REMARK   89  A    between atoms: _208  and  _211
REMARK   90  A    between atoms: _214  and  _216
REMARK   91  A    between atoms: _216  and  _217
REMARK   92  A    between atoms: _216  and  _219
REMARK   93  A    between atoms: _219  and  _220
REMARK   94  A    between atoms: _224  and  _225
REMARK   95  A    between atoms: _230  and  _232
REMARK   96  A    between atoms: _232  and  _233
REMARK   97  A    between atoms: _232  and  _235
REMARK   98  A    between atoms: _235  and  _236
REMARK   99  A    between atoms: _240  and  _241
REMARK  100  A    between atoms: _246  and  _248
REMARK  101  A    between atoms: _248  and  _249
REMARK  102  A    between atoms: _252  and  _254
REMARK  103  A    between atoms: _254  and  _255
REMARK  104  A    between atoms: _254  and  _257
REMARK  105  A    between atoms: _257  and  _258
REMARK  106  A    between atoms: _263  and  _265
REMARK  107  A    between atoms: _265  and  _266
REMARK  108  A    between atoms: _265  and  _268
REMARK  109  A    between atoms: _268  and  _269
REMARK  110  A    between atoms: _272  and  _274
REMARK  111  A    between atoms: _274  and  _275
REMARK  112  A    between atoms: _274  and  _277
REMARK  113  A    between atoms: _277  and  _278
REMARK  114  A    between atoms: _281  and  _283
REMARK  115  A    between atoms: _283  and  _284
REMARK  116  A    between atoms: _286  and  _288
REMARK  117  A    between atoms: _288  and  _289
REMARK  118  A    between atoms: _288  and  _291
REMARK  119  A    between atoms: _291  and  _292
REMARK  120  A    between atoms: _292  and  _293
REMARK  121  A    between atoms: _293  and  _294
REMARK  122  A    between atoms: _303  and  _305
REMARK  123  A    between atoms: _305  and  _306
REMARK  124  A    between atoms: _305  and  _308
REMARK  125  A    between atoms: _308  and  _309
REMARK  126  A    between atoms: _309  and  _310
REMARK  127  A    between atoms: _310  and  _311
REMARK  128  A    between atoms: _321  and  _322
REMARK  129  A    between atoms: _327  and  _329
REMARK  130  A    between atoms: _329  and  _330
REMARK  131  A    between atoms: _329  and  _332
REMARK  132  A    between atoms: _332  and  _333
REMARK  133  A    between atoms: _336  and  _338
REMARK  134  A    between atoms: _338  and  _339
REMARK  135  A    between atoms: _338  and  _341
REMARK  136  A    between atoms: _341  and  _342
REMARK  137  A    between atoms: _345  and  _347
REMARK  138  A    between atoms: _347  and  _348
REMARK  139  A    between atoms: _347  and  _350
REMARK  140  A    between atoms: _350  and  _351
REMARK  141  A    between atoms: _354  and  _356
REMARK  142  A    between atoms: _356  and  _357
REMARK  143  A    between atoms: _356  and  _359
REMARK  144  A    between atoms: _359  and  _360
REMARK  145  A    between atoms: _363  and  _365
REMARK  146  A    between atoms: _365  and  _366
REMARK  147  A    between atoms: _365  and  _368
REMARK  148  A    between atoms: _368  and  _369
REMARK  149  A    between atoms: _372  and  _374
REMARK  150  A    between atoms: _374  and  _375
REMARK  151  A    between atoms: _377  and  _379
REMARK  152  A    between atoms: _379  and  _380
REMARK  153  A    between atoms: _383  and  _385
REMARK  154  A    between atoms: _385  and  _386
REMARK  155  A    between atoms: _385  and  _388
REMARK  156  A    between atoms: _388  and  _389
REMARK  157  A    between atoms: _392  and  _394
REMARK  158  A    between atoms: _394  and  _395
REMARK  159  A    between atoms: _394  and  _397
REMARK  160  A    between atoms: _397  and  _398
REMARK  161  A    between atoms: _401  and  _403
REMARK  162  A    between atoms: _403  and  _404
REMARK  163  A    between atoms: _403  and  _406
REMARK  164  A    between atoms: _406  and  _407
REMARK  165  A    between atoms: _410  and  _412
REMARK  166  A    between atoms: _412  and  _413
REMARK  167  A    between atoms: _412  and  _415
REMARK  168  A    between atoms: _418  and  _420
REMARK  169  A    between atoms: _420  and  _421
REMARK  170  A    between atoms: _420  and  _423
REMARK  171  A    between atoms: _423  and  _424
REMARK  172  A    between atoms: _427  and  _429
REMARK  173  A    between atoms: _429  and  _430
REMARK  174  A    between atoms: _429  and  _432
REMARK  175  A    between atoms: _432  and  _433
REMARK  176  A    between atoms: _433  and  _434
REMARK  177  A    between atoms: _434  and  _435
REMARK  178  A    between atoms: _435  and  _436
REMARK  179  A    between atoms: _440  and  _442
REMARK  180  A    between atoms: _442  and  _443
REMARK  181  A    between atoms: _442  and  _445
REMARK  182  A    between atoms: _445  and  _446
REMARK  183  A    between atoms: _446  and  _447
REMARK  184  A    between atoms: _449  and  _451
REMARK  185  A    between atoms: _451  and  _452
REMARK  186  A    between atoms: _451  and  _454
REMARK  187  A    between atoms: _454  and  _455
REMARK  188  A    between atoms: _458  and  _460
REMARK  189  A    between atoms: _460  and  _461
REMARK  190  A    between atoms: _463  and  _465
REMARK  191  A    between atoms: _465  and  _466
REMARK  192  A    between atoms: _468  and  _470
REMARK  193  A    between atoms: _470  and  _471
REMARK  194  A    between atoms: _470  and  _473
REMARK  195  A    between atoms: _473  and  _474
REMARK  196  A    between atoms: _477  and  _479
REMARK  197  A    between atoms: _479  and  _480
REMARK  198  A    between atoms: _482  and  _484
REMARK  199  A    between atoms: _484  and  _485
REMARK  200  A    between atoms: _487  and  _489
REMARK  201  A    between atoms: _489  and  _490
REMARK  202  A    between atoms: _489  and  _492
REMARK  203  A    between atoms: _492  and  _493
REMARK  204  A    between atoms: _496  and  _498
REMARK  205  A    between atoms: _498  and  _499
REMARK  206  A    between atoms: _498  and  _501
REMARK  207  A    between atoms: _504  and  _506
REMARK  208  A    between atoms: _506  and  _507
REMARK  209  A    between atoms: _506  and  _509
REMARK  210  A    between atoms: _509  and  _510
REMARK  211  A    between atoms: _514  and  _515
REMARK  212  A    between atoms: _520  and  _522
REMARK  213  A    between atoms: _522  and  _523
REMARK  214  A    between atoms: _522  and  _525
REMARK  215  A    between atoms: _525  and  _526
REMARK  216  A    between atoms: _530  and  _531
REMARK  217  A    between atoms: _536  and  _538
REMARK  218  A    between atoms: _538  and  _539
REMARK  219  A    between atoms: _542  and  _544
REMARK  220  A    between atoms: _544  and  _545
REMARK  221  A    between atoms: _544  and  _547
REMARK  222  A    between atoms: _547  and  _548
REMARK  223  A    between atoms: _553  and  _555
REMARK  224  A    between atoms: _555  and  _556
REMARK  225  A    between atoms: _555  and  _558
REMARK  226  A    between atoms: _558  and  _559
REMARK  227  A    between atoms: _562  and  _564
REMARK  228  A    between atoms: _564  and  _565
REMARK  229  A    between atoms: _564  and  _567
REMARK  230  A    between atoms: _567  and  _568
REMARK  231  A    between atoms: _571  and  _573
REMARK  232  A    between atoms: _573  and  _574
REMARK  233  A    between atoms: _576  and  _578
REMARK  234  A    between atoms: _578  and  _579
REMARK  235  A    between atoms: _578  and  _581
REMARK  236  A    between atoms: _581  and  _582
REMARK  237  A    between atoms: _582  and  _583
REMARK  238  A    between atoms: _583  and  _584
REMARK                            x       y       z     vdW  Elec       q    Type
REMARK                         _______ _______ _______ _____ _____    ______ ____
ROOT
ATOM      1  C   ALA A   6      18.124 -35.085  20.301  0.00  0.00    +0.241 C 
ATOM      2  N   ASP A   7      17.819 -36.176  21.002  0.00  0.00    -0.297 N 
ATOM      3  H   ASP A   7      18.012 -37.116  20.600  0.00  0.00    +0.150 HD
ATOM      4  O   ALA A   6      17.895 -33.948  20.709  0.00  0.00    -0.273 OA
ENDROOT
BRANCH   1   5
ATOM      5  CA  ALA A   6      18.778 -35.302  18.939  0.00  0.00    +0.149 C 
ATOM      6  CB  ALA A   6      20.249 -34.882  19.000  0.00  0.00    +0.031 C 
BRANCH   5   8
ATOM      7  C   GLY A   5      17.263 -35.234  17.030  0.00  0.00    +0.243 C 
ATOM      8  N   ALA A   6      18.121 -34.608  17.834  0.00  0.00    -0.297 N 
ATOM      9  H   ALA A   6      18.328 -33.602  17.671  0.00  0.00    +0.150 HD
ATOM     10  O   GLY A   5      16.936 -36.407  17.193  0.00  0.00    -0.273 OA
BRANCH   7  11
ATOM     11  CA  GLY A   5      16.666 -34.438  15.885  0.00  0.00    +0.176 C 
BRANCH  11  14
ATOM     12  C   THR A   4      16.139 -32.211  16.636  0.00  0.00    +0.243 C 
ATOM     13  O   THR A   4      15.175 -32.624  17.285  0.00  0.00    -0.273 OA
ATOM     14  N   GLY A   5      16.927 -33.013  15.927  0.00  0.00    -0.295 N 
ATOM     15  H   GLY A   5      17.732 -32.617  15.401  0.00  0.00    +0.150 HD
BRANCH  12  16
ATOM     16  CA  THR A   4      16.482 -30.728  16.615  0.00  0.00    +0.176 C 
BRANCH  16  19
ATOM     17  C   ASP A   3      18.913 -30.827  16.908  0.00  0.00    +0.241 C 
ATOM     18  O   ASP A   3      18.811 -31.505  17.929  0.00  0.00    -0.273 OA
ATOM     19  N   THR A   4      17.858 -30.437  16.194  0.00  0.00    -0.295 N 
ATOM     20  H   THR A   4      18.014 -29.910  15.311  0.00  0.00    +0.150 HD
BRANCH  17  21
ATOM     21  CA  ASP A   3      20.297 -30.431  16.364  0.00  0.00    +0.160 C 
BRANCH  21  23
ATOM     22  C   LEU A   2      21.155 -28.154  16.196  0.00  0.00    +0.241 C 
ATOM     23  N   ASP A   3      20.896 -29.225  16.935  0.00  0.00    -0.297 N 
ATOM     24  H   ASP A   3      21.125 -29.206  17.949  0.00  0.00    +0.150 HD
ATOM     25  O   LEU A   2      20.809 -28.055  15.019  0.00  0.00    -0.273 OA
BRANCH  22  26
ATOM     26  CA  LEU A   2      21.906 -27.014  16.891  0.00  0.00    +0.149 C 
BRANCH  26  29
ATOM     27  C   LEU A   1      24.098 -28.044  16.627  0.00  0.00    +0.238 C 
ATOM     28  O   LEU A   1      23.859 -28.832  17.541  0.00  0.00    -0.274 OA
ATOM     29  N   LEU A   2      23.235 -27.091  16.268  0.00  0.00    -0.297 N 
ATOM     30  H   LEU A   2      23.505 -26.397  15.542  0.00  0.00    +0.150 HD
BRANCH  27  31
ATOM     31  CA  LEU A   1      25.439 -28.123  15.876  0.00  0.00    +0.145 C 
BRANCH  31  32
ATOM     32  N   LEU A   1      26.588 -28.067  16.761  0.00  0.00    -0.238 NA
ATOM     33  H   LEU A   1      27.007 -28.963  17.081  0.00  0.00    +0.142 HD
ENDBRANCH  31  32
BRANCH  31  34
ATOM     34  CB  LEU A   1      25.523 -29.444  15.109  0.00  0.00    +0.026 C 
BRANCH  34  35
ATOM     35  CG  LEU A   1      24.730 -29.721  13.839  0.00  0.00    +0.002 C 
ATOM     36  CD2 LEU A   1      24.798 -31.223  13.547  0.00  0.00    +0.000 C 
ATOM     37  CD1 LEU A   1      25.319 -28.934  12.677  0.00  0.00    +0.000 C 
ENDBRANCH  34  35
ENDBRANCH  31  34
ENDBRANCH  27  31
ENDBRANCH  26  29
BRANCH  26  38
ATOM     38  CB  LEU A   2      21.239 -25.675  16.589  0.00  0.00    +0.029 C 
BRANCH  38  39
ATOM     39  CG  LEU A   2      21.953 -24.465  17.194  0.00  0.00    +0.002 C 
ATOM     40  CD2 LEU A   2      22.024 -24.625  18.696  0.00  0.00    +0.000 C 
ATOM     41  CD1 LEU A   2      21.217 -23.192  16.819  0.00  0.00    +0.000 C 
ENDBRANCH  38  39
ENDBRANCH  26  38
ENDBRANCH  22  26
ENDBRANCH  21  23
BRANCH  21  42
ATOM     42  CB  ASP A   3      21.309 -31.559  16.592  0.00  0.00    +0.143 C 
BRANCH  42  43
ATOM     43  CG  ASP A   3      20.932 -32.844  15.911  0.00  0.00    +0.367 C 
ATOM     44  OD2 ASP A   3      21.834 -33.692  15.765  0.00  0.00    -0.246 OA
ATOM     45  OD1 ASP A   3      19.754 -33.015  15.544  0.00  0.00    -0.246 OA
ENDBRANCH  42  43
ENDBRANCH  21  42
ENDBRANCH  17  21
ENDBRANCH  16  19
BRANCH  16  46
ATOM     46  CB  THR A   4      15.452 -29.999  15.705  0.00  0.00    +0.137 C 
ATOM     47  CG2 THR A   4      15.601 -28.483  15.849  0.00  0.00    +0.034 C 
BRANCH  46  48
ATOM     48  OG1 THR A   4      15.667 -30.366  14.333  0.00  0.00    -0.382 OA
ATOM     49  HG1 THR A   4      15.557 -31.345  14.233  0.00  0.00    +0.210 HD
ENDBRANCH  46  48
ENDBRANCH  16  46
ENDBRANCH  12  16
ENDBRANCH  11  14
ENDBRANCH   7  11
ENDBRANCH   5   8
ENDBRANCH   1   5
BRANCH   2  50
ATOM     50  CA  ASP A   7      17.217 -36.067  22.328  0.00  0.00    +0.160 C 
BRANCH  50  51
ATOM     51  C   ASP A   7      18.251 -35.490  23.280  0.00  0.00    +0.241 C 
ATOM     52  O   ASP A   7      17.927 -34.673  24.142  0.00  0.00    -0.273 OA
ATOM     53  N   ASP A   8      19.497 -35.932  23.114  0.00  0.00    -0.297 N 
ATOM     54  H   ASP A   8      19.695 -36.593  22.336  0.00  0.00    +0.150 HD
BRANCH  53  55
ATOM     55  CA  ASP A   8      20.595 -35.522  23.985  0.00  0.00    +0.160 C 
BRANCH  55  56
ATOM     56  C   ASP A   8      21.655 -34.633  23.347  0.00  0.00    +0.241 C 
ATOM     57  N   THR A   9      22.506 -34.081  24.209  0.00  0.00    -0.295 N 
ATOM     58  H   THR A   9      22.372 -34.270  25.223  0.00  0.00    +0.150 HD
ATOM     59  O   ASP A   8      21.710 -34.469  22.132  0.00  0.00    -0.273 OA
BRANCH  57  60
ATOM     60  CA  THR A   9      23.616 -33.225  23.808  0.00  0.00    +0.176 C 
BRANCH  60  61
ATOM     61  C   THR A   9      24.887 -34.063  23.972  0.00  0.00    +0.243 C 
ATOM     62  O   THR A   9      25.138 -34.605  25.050  0.00  0.00    -0.273 OA
ATOM     63  N   VAL A  10      25.670 -34.189  22.905  0.00  0.00    -0.297 N 
ATOM     64  H   VAL A  10      25.399 -33.721  22.017  0.00  0.00    +0.150 HD
BRANCH  63  65
ATOM     65  CA  VAL A  10      26.903 -34.970  22.954  0.00  0.00    +0.149 C 
BRANCH  65  66
ATOM     66  C   VAL A  10      28.067 -34.189  22.350  0.00  0.00    +0.241 C 
ATOM     67  N   LEU A  11      29.161 -34.104  23.099  0.00  0.00    -0.298 N 
ATOM     68  H   LEU A  11      29.175 -34.573  24.027  0.00  0.00    +0.150 HD
ATOM     69  O   VAL A  10      27.976 -33.680  21.231  0.00  0.00    -0.273 OA
BRANCH  67  70
ATOM     70  CA  LEU A  11      30.343 -33.373  22.658  0.00  0.00    +0.137 C 
BRANCH  70  71
ATOM     71  C   LEU A  11      31.536 -34.296  22.464  0.00  0.00    +0.227 C 
ATOM     72  O   LEU A  11      31.658 -35.311  23.155  0.00  0.00    -0.286 OA
ENDBRANCH  70  71
BRANCH  70  73
ATOM     73  CB  LEU A  11      30.712 -32.308  23.694  0.00  0.00    +0.028 C 
BRANCH  73  74
ATOM     74  CG  LEU A  11      29.645 -31.280  24.092  0.00  0.00    +0.002 C 
ATOM     75  CD2 LEU A  11      30.211 -30.362  25.160  0.00  0.00    +0.000 C 
ATOM     76  CD1 LEU A  11      29.208 -30.479  22.876  0.00  0.00    +0.000 C 
ENDBRANCH  73  74
ENDBRANCH  70  73
ENDBRANCH  67  70
ENDBRANCH  65  66
BRANCH  65  77
ATOM     77  CB  VAL A  10      26.759 -36.321  22.196  0.00  0.00    +0.027 C 
ATOM     78  CG2 VAL A  10      28.033 -37.136  22.344  0.00  0.00    +0.002 C 
ATOM     79  CG1 VAL A  10      26.471 -36.080  20.736  0.00  0.00    +0.002 C 
ENDBRANCH  65  77
ENDBRANCH  63  65
ENDBRANCH  60  61
BRANCH  60  80
ATOM     80  CB  THR A   9      23.680 -31.970  24.716  0.00  0.00    +0.137 C 
ATOM     81  CG2 THR A   9      24.989 -31.208  24.522  0.00  0.00    +0.034 C 
BRANCH  80  82
ATOM     82  OG1 THR A   9      22.573 -31.113  24.412  0.00  0.00    -0.382 OA
ATOM     83  HG1 THR A   9      21.726 -31.599  24.575  0.00  0.00    +0.210 HD
ENDBRANCH  80  82
ENDBRANCH  60  80
ENDBRANCH  57  60
ENDBRANCH  55  56
BRANCH  55  84
ATOM     84  CB  ASP A   8      21.304 -36.758  24.542  0.00  0.00    +0.143 C 
BRANCH  84  85
ATOM     85  CG  ASP A   8      20.344 -37.789  25.085  0.00  0.00    +0.367 C 
ATOM     86  OD2 ASP A   8      19.472 -37.416  25.892  0.00  0.00    -0.246 OA
ATOM     87  OD1 ASP A   8      20.469 -38.973  24.712  0.00  0.00    -0.246 OA
ENDBRANCH  84  85
ENDBRANCH  55  84
ENDBRANCH  53  55
ENDBRANCH  50  51
BRANCH  50  88
ATOM     88  CB  ASP A   7      16.809 -37.436  22.890  0.00  0.00    +0.143 C 
BRANCH  88  89
ATOM     89  CG  ASP A   7      15.573 -38.025  22.221  0.00  0.00    +0.367 C 
ATOM     90  OD2 ASP A   7      15.210 -39.164  22.587  0.00  0.00    -0.246 OA
ATOM     91  OD1 ASP A   7      14.969 -37.375  21.347  0.00  0.00    -0.246 OA
ENDBRANCH  88  89
ENDBRANCH  50  88
ENDBRANCH   2  50
TORSDOF 39
REMARK  Name = ../refined-set-2016/2fle/2fle_pocket.pdb
REMARK  238 active torsions:
REMARK  status: ('A' for Active; 'I' for Inactive)
REMARK    1  A    between atoms: _1  and  _3
REMARK    2  A    between atoms: _3  and  _4
REMARK    3  A    between atoms: _3  and  _6
REMARK    4  A    between atoms: _6  and  _7
REMARK    5  A    between atoms: _7  and  _8
REMARK    6  A    between atoms: _8  and  _9
REMARK    7  A    between atoms: _19  and  _20
REMARK    8  A    between atoms: _25  and  _27
REMARK    9  A    between atoms: _27  and  _28
REMARK   10  A    between atoms: _27  and  _30
REMARK   11  A    between atoms: _30  and  _31
REMARK   12  A    between atoms: _34  and  _36
REMARK   13  A    between atoms: _36  and  _37
REMARK   14  A    between atoms: _36  and  _39
REMARK   15  A    between atoms: _39  and  _40
REMARK   16  A    between atoms: _43  and  _45
REMARK   17  A    between atoms: _45  and  _46
REMARK   18  A    between atoms: _45  and  _48
REMARK   19  A    between atoms: _48  and  _49
REMARK   20  A    between atoms: _52  and  _54
REMARK   21  A    between atoms: _54  and  _55
REMARK   22  A    between atoms: _54  and  _57
REMARK   23  A    between atoms: _57  and  _58
REMARK   24  A    between atoms: _61  and  _63
REMARK   25  A    between atoms: _63  and  _64
REMARK   26  A    between atoms: _63  and  _66
REMARK   27  A    between atoms: _66  and  _67
REMARK   28  A    between atoms: _70  and  _72
REMARK   29  A    between atoms: _72  and  _73
REMARK   30  A    between atoms: _75  and  _77
REMARK   31  A    between atoms: _77  and  _78
REMARK   32  A    between atoms: _81  and  _83
REMARK   33  A    between atoms: _83  and  _84
REMARK   34  A    between atoms: _83  and  _86
REMARK   35  A    between atoms: _86  and  _87
REMARK   36  A    between atoms: _90  and  _92
REMARK   37  A    between atoms: _92  and  _93
REMARK   38  A    between atoms: _92  and  _95
REMARK   39  A    between atoms: _95  and  _96
REMARK   40  A    between atoms: _99  and  _101
REMARK   41  A    between atoms: _101  and  _102
REMARK   42  A    between atoms: _101  and  _104
REMARK   43  A    between atoms: _104  and  _105
REMARK   44  A    between atoms: _108  and  _110
REMARK   45  A    between atoms: _110  and  _111
REMARK   46  A    between atoms: _110  and  _113
REMARK   47  A    between atoms: _116  and  _118
REMARK   48  A    between atoms: _118  and  _119
REMARK   49  A    between atoms: _118  and  _121
REMARK   50  A    between atoms: _121  and  _122
REMARK   51  A    between atoms: _125  and  _127
REMARK   52  A    between atoms: _127  and  _128
REMARK   53  A    between atoms: _127  and  _130
REMARK   54  A    between atoms: _130  and  _131
REMARK   55  A    between atoms: _131  and  _132
REMARK   56  A    between atoms: _132  and  _133
REMARK   57  A    between atoms: _133  and  _134
REMARK   58  A    between atoms: _138  and  _140
REMARK   59  A    between atoms: _140  and  _141
REMARK   60  A    between atoms: _140  and  _143
REMARK   61  A    between atoms: _143  and  _144
REMARK   62  A    between atoms: _144  and  _145
REMARK   63  A    between atoms: _147  and  _149
REMARK   64  A    between atoms: _149  and  _150
REMARK   65  A    between atoms: _149  and  _152
REMARK   66  A    between atoms: _152  and  _153
REMARK   67  A    between atoms: _156  and  _158
REMARK   68  A    between atoms: _158  and  _159
REMARK   69  A    between atoms: _161  and  _163
REMARK   70  A    between atoms: _163  and  _164
REMARK   71  A    between atoms: _166  and  _168
REMARK   72  A    between atoms: _168  and  _169
REMARK   73  A    between atoms: _168  and  _171
REMARK   74  A    between atoms: _171  and  _172
REMARK   75  A    between atoms: _175  and  _177
REMARK   76  A    between atoms: _177  and  _178
REMARK   77  A    between atoms: _180  and  _182
REMARK   78  A    between atoms: _182  and  _183
REMARK   79  A    between atoms: _185  and  _187
REMARK   80  A    between atoms: _187  and  _188
REMARK   81  A    between atoms: _187  and  _190
REMARK   82  A    between atoms: _190  and  _191
REMARK   83  A    between atoms: _197  and  _199
REMARK   84  A    between atoms: _199  and  _200
REMARK   85  A    between atoms: _199  and  _202
REMARK   86  A    between atoms: _202  and  _203
REMARK   87  A    between atoms: _206  and  _208
REMARK   88  A    between atoms: _208  and  _209
REMARK   89  A    between atoms: _208  and  _211
REMARK   90  A    between atoms: _214  and  _216
REMARK   91  A    between atoms: _216  and  _217
REMARK   92  A    between atoms: _216  and  _219
REMARK   93  A    between atoms: _219  and  _220
REMARK   94  A    between atoms: _224  and  _225
REMARK   95  A    between atoms: _230  and  _232
REMARK   96  A    between atoms: _232  and  _233
REMARK   97  A    between atoms: _232  and  _235
REMARK   98  A    between atoms: _235  and  _236
REMARK   99  A    between atoms: _240  and  _241
REMARK  100  A    between atoms: _246  and  _248
REMARK  101  A    between atoms: _248  and  _249
REMARK  102  A    between atoms: _252  and  _254
REMARK  103  A    between atoms: _254  and  _255
REMARK  104  A    between atoms: _254  and  _257
REMARK  105  A    between atoms: _257  and  _258
REMARK  106  A    between atoms: _263  and  _265
REMARK  107  A    between atoms: _265  and  _266
REMARK  108  A    between atoms: _265  and  _268
REMARK  109  A    between atoms: _268  and  _269
REMARK  110  A    between atoms: _272  and  _274
REMARK  111  A    between atoms: _274  and  _275
REMARK  112  A    between atoms: _274  and  _277
REMARK  113  A    between atoms: _277  and  _278
REMARK  114  A    between atoms: _281  and  _283
REMARK  115  A    between atoms: _283  and  _284
REMARK  116  A    between atoms: _286  and  _288
REMARK  117  A    between atoms: _288  and  _289
REMARK  118  A    between atoms: _288  and  _291
REMARK  119  A    between atoms: _291  and  _292
REMARK  120  A    between atoms: _292  and  _293
REMARK  121  A    between atoms: _293  and  _294
REMARK  122  A    between atoms: _303  and  _305
REMARK  123  A    between atoms: _305  and  _306
REMARK  124  A    between atoms: _305  and  _308
REMARK  125  A    between atoms: _308  and  _309
REMARK  126  A    between atoms: _309  and  _310
REMARK  127  A    between atoms: _310  and  _311
REMARK  128  A    between atoms: _321  and  _322
REMARK  129  A    between atoms: _327  and  _329
REMARK  130  A    between atoms: _329  and  _330
REMARK  131  A    between atoms: _329  and  _332
REMARK  132  A    between atoms: _332  and  _333
REMARK  133  A    between atoms: _336  and  _338
REMARK  134  A    between atoms: _338  and  _339
REMARK  135  A    between atoms: _338  and  _341
REMARK  136  A    between atoms: _341  and  _342
REMARK  137  A    between atoms: _345  and  _347
REMARK  138  A    between atoms: _347  and  _348
REMARK  139  A    between atoms: _347  and  _350
REMARK  140  A    between atoms: _350  and  _351
REMARK  141  A    between atoms: _354  and  _356
REMARK  142  A    between atoms: _356  and  _357
REMARK  143  A    between atoms: _356  and  _359
REMARK  144  A    between atoms: _359  and  _360
REMARK  145  A    between atoms: _363  and  _365
REMARK  146  A    between atoms: _365  and  _366
REMARK  147  A    between atoms: _365  and  _368
REMARK  148  A    between atoms: _368  and  _369
REMARK  149  A    between atoms: _372  and  _374
REMARK  150  A    between atoms: _374  and  _375
REMARK  151  A    between atoms: _377  and  _379
REMARK  152  A    between atoms: _379  and  _380
REMARK  153  A    between atoms: _383  and  _385
REMARK  154  A    between atoms: _385  and  _386
REMARK  155  A    between atoms: _385  and  _388
REMARK  156  A    between atoms: _388  and  _389
REMARK  157  A    between atoms: _392  and  _394
REMARK  158  A    between atoms: _394  and  _395
REMARK  159  A    between atoms: _394  and  _397
REMARK  160  A    between atoms: _397  and  _398
REMARK  161  A    between atoms: _401  and  _403
REMARK  162  A    between atoms: _403  and  _404
REMARK  163  A    between atoms: _403  and  _406
REMARK  164  A    between atoms: _406  and  _407
REMARK  165  A    between atoms: _410  and  _412
REMARK  166  A    between atoms: _412  and  _413
REMARK  167  A    between atoms: _412  and  _415
REMARK  168  A    between atoms: _418  and  _420
REMARK  169  A    between atoms: _420  and  _421
REMARK  170  A    between atoms: _420  and  _423
REMARK  171  A    between atoms: _423  and  _424
REMARK  172  A    between atoms: _427  and  _429
REMARK  173  A    between atoms: _429  and  _430
REMARK  174  A    between atoms: _429  and  _432
REMARK  175  A    between atoms: _432  and  _433
REMARK  176  A    between atoms: _433  and  _434
REMARK  177  A    between atoms: _434  and  _435
REMARK  178  A    between atoms: _435  and  _436
REMARK  179  A    between atoms: _440  and  _442
REMARK  180  A    between atoms: _442  and  _443
REMARK  181  A    between atoms: _442  and  _445
REMARK  182  A    between atoms: _445  and  _446
REMARK  183  A    between atoms: _446  and  _447
REMARK  184  A    between atoms: _449  and  _451
REMARK  185  A    between atoms: _451  and  _452
REMARK  186  A    between atoms: _451  and  _454
REMARK  187  A    between atoms: _454  and  _455
REMARK  188  A    between atoms: _458  and  _460
REMARK  189  A    between atoms: _460  and  _461
REMARK  190  A    between atoms: _463  and  _465
REMARK  191  A    between atoms: _465  and  _466
REMARK  192  A    between atoms: _468  and  _470
REMARK  193  A    between atoms: _470  and  _471
REMARK  194  A    between atoms: _470  and  _473
REMARK  195  A    between atoms: _473  and  _474
REMARK  196  A    between atoms: _477  and  _479
REMARK  197  A    between atoms: _479  and  _480
REMARK  198  A    between atoms: _482  and  _484
REMARK  199  A    between atoms: _484  and  _485
REMARK  200  A    between atoms: _487  and  _489
REMARK  201  A    between atoms: _489  and  _490
REMARK  202  A    between atoms: _489  and  _492
REMARK  203  A    between atoms: _492  and  _493
REMARK  204  A    between atoms: _496  and  _498
REMARK  205  A    between atoms: _498  and  _499
REMARK  206  A    between atoms: _498  and  _501
REMARK  207  A    between atoms: _504  and  _506
REMARK  208  A    between atoms: _506  and  _507
REMARK  209  A    between atoms: _506  and  _509
REMARK  210  A    between atoms: _509  and  _510
REMARK  211  A    between atoms: _514  and  _515
REMARK  212  A    between atoms: _520  and  _522
REMARK  213  A    between atoms: _522  and  _523
REMARK  214  A    between atoms: _522  and  _525
REMARK  215  A    between atoms: _525  and  _526
REMARK  216  A    between atoms: _530  and  _531
REMARK  217  A    between atoms: _536  and  _538
REMARK  218  A    between atoms: _538  and  _539
REMARK  219  A    between atoms: _542  and  _544
REMARK  220  A    between atoms: _544  and  _545
REMARK  221  A    between atoms: _544  and  _547
REMARK  222  A    between atoms: _547  and  _548
REMARK  223  A    between atoms: _553  and  _555
REMARK  224  A    between atoms: _555  and  _556
REMARK  225  A    between atoms: _555  and  _558
REMARK  226  A    between atoms: _558  and  _559
REMARK  227  A    between atoms: _562  and  _564
REMARK  228  A    between atoms: _564  and  _565
REMARK  229  A    between atoms: _564  and  _567
REMARK  230  A    between atoms: _567  and  _568
REMARK  231  A    between atoms: _571  and  _573
REMARK  232  A    between atoms: _573  and  _574
REMARK  233  A    between atoms: _576  and  _578
REMARK  234  A    between atoms: _578  and  _579
REMARK  235  A    between atoms: _578  and  _581
REMARK  236  A    between atoms: _581  and  _582
REMARK  237  A    between atoms: _582  and  _583
REMARK  238  A    between atoms: _583  and  _584
REMARK                            x       y       z     vdW  Elec       q    Type
REMARK                         _______ _______ _______ _____ _____    ______ ____
ROOT
ATOM      1  C   ILE A   3      23.643 -44.281  21.762  0.00  0.00    +0.241 C 
ATOM      2  O   ILE A   3      24.678 -44.734  21.274  0.00  0.00    -0.273 OA
ATOM      3  N   GLY A   4      22.500 -44.212  21.097  0.00  0.00    -0.295 N 
ATOM      4  H   GLY A   4      21.655 -43.812  21.553  0.00  0.00    +0.150 HD
ENDROOT
BRANCH   1   5
ATOM      5  CA  ILE A   3      23.614 -43.759  23.186  0.00  0.00    +0.149 C 
BRANCH   5   8
ATOM      6  C   MET A   2      24.265 -45.128  25.066  0.00  0.00    +0.241 C 
ATOM      7  O   MET A   2      23.101 -45.198  25.448  0.00  0.00    -0.273 OA
ATOM      8  N   ILE A   3      24.621 -44.444  23.988  0.00  0.00    -0.297 N 
ATOM      9  H   ILE A   3      25.623 -44.396  23.713  0.00  0.00    +0.150 HD
BRANCH   6  10
ATOM     10  CA  MET A   2      25.370 -45.824  25.841  0.00  0.00    +0.149 C 
BRANCH  10  13
ATOM     11  C   LYS A   1      26.390 -44.861  27.825  0.00  0.00    +0.238 C 
ATOM     12  O   LYS A   1      27.485 -44.742  27.275  0.00  0.00    -0.274 OA
ATOM     13  N   MET A   2      25.322 -45.364  27.219  0.00  0.00    -0.297 N 
ATOM     14  H   MET A   2      24.427 -45.431  27.744  0.00  0.00    +0.150 HD
BRANCH  11  15
ATOM     15  CA  LYS A   1      26.193 -44.430  29.267  0.00  0.00    +0.145 C 
BRANCH  15  16
ATOM     16  N   LYS A   1      27.487 -44.261  29.908  0.00  0.00    -0.238 NA
ATOM     17  H   LYS A   1      28.245 -43.760  29.402  0.00  0.00    +0.142 HD
ENDBRANCH  15  16
BRANCH  15  18
ATOM     18  CB  LYS A   1      25.397 -43.120  29.319  0.00  0.00    +0.026 C 
BRANCH  18  19
ATOM     19  CG  LYS A   1      23.981 -43.229  28.766  0.00  0.00    -0.000 C 
BRANCH  19  20
ATOM     20  CD  LYS A   1      23.215 -41.920  28.888  0.00  0.00    -0.024 C 
BRANCH  20  21
ATOM     21  CE  LYS A   1      21.790 -42.071  28.366  0.00  0.00    -0.086 C 
BRANCH  21  22
ATOM     22  NZ  LYS A   1      20.993 -40.818  28.493  0.00  0.00    +0.380 N 
ATOM     23  HZ1 LYS A   1      20.938 -40.544  29.495  0.00  0.00    -0.089 HD
ATOM     24  HZ2 LYS A   1      20.034 -40.979  28.123  0.00  0.00    -0.089 HD
ATOM     25  HZ3 LYS A   1      21.453 -40.060  27.949  0.00  0.00    -0.089 HD
ENDBRANCH  21  22
ENDBRANCH  20  21
ENDBRANCH  19  20
ENDBRANCH  18  19
ENDBRANCH  15  18
ENDBRANCH  11  15
ENDBRANCH  10  13
BRANCH  10  26
ATOM     26  CB  MET A   2      25.154 -47.335  25.790  0.00  0.00    +0.041 C 
BRANCH  26  27
ATOM     27  CG  MET A   2      25.608 -47.982  24.502  0.00  0.00    +0.060 C 
BRANCH  27  28
ATOM     28  SD  MET A   2      27.060 -48.999  24.800  0.00  0.00    -0.139 S 
ATOM     29  CE  MET A   2      26.304 -50.613  24.984  0.00  0.00    +0.069 C 
ENDBRANCH  27  28
ENDBRANCH  26  27
ENDBRANCH  10  26
ENDBRANCH   6  10
ENDBRANCH   5   8
BRANCH   5  30
ATOM     30  CB  ILE A   3      23.834 -42.229  23.154  0.00  0.00    +0.027 C 
ATOM     31  CG2 ILE A   3      23.636 -41.648  24.538  0.00  0.00    +0.002 C 
BRANCH  30  32
ATOM     32  CG1 ILE A   3      25.230 -41.914  22.619  0.00  0.00    +0.002 C 
ATOM     33  CD1 ILE A   3      25.497 -40.435  22.447  0.00  0.00    +0.000 C 
ENDBRANCH  30  32
ENDBRANCH   5  30
ENDBRANCH   1   5
BRANCH   3  34
ATOM     34  CA  GLY A   4      22.429 -44.694  19.735  0.00  0.00    +0.176 C 
BRANCH  34  35
ATOM     35  C   GLY A   4      22.196 -43.603  18.713  0.00  0.00    +0.243 C 
ATOM     36  O   GLY A   4      21.981 -42.436  19.049  0.00  0.00    -0.273 OA
ATOM     37  N   GLY A   5      22.247 -44.003  17.451  0.00  0.00    -0.295 N 
ATOM     38  H   GLY A   5      22.445 -45.003  17.245  0.00  0.00    +0.150 HD
BRANCH  37  39
ATOM     39  CA  GLY A   5      22.035 -43.086  16.352  0.00  0.00    +0.176 C 
BRANCH  39  40
ATOM     40  C   GLY A   5      22.213 -43.861  15.065  0.00  0.00    +0.243 C 
ATOM     41  O   GLY A   5      22.138 -45.090  15.060  0.00  0.00    -0.273 OA
ATOM     42  N   ILE A   6      22.433 -43.151  13.969  0.00  0.00    -0.297 N 
ATOM     43  H   ILE A   6      22.450 -42.113  14.025  0.00  0.00    +0.150 HD
BRANCH  42  44
ATOM     44  CA  ILE A   6      22.650 -43.801  12.693  0.00  0.00    +0.149 C 
BRANCH  44  45
ATOM     45  C   ILE A   6      23.988 -44.520  12.806  0.00  0.00    +0.241 C 
ATOM     46  O   ILE A   6      24.962 -43.954  13.302  0.00  0.00    -0.273 OA
ATOM     47  N   GLY A   7      24.032 -45.768  12.364  0.00  0.00    -0.295 N 
ATOM     48  H   GLY A   7      23.176 -46.213  11.976  0.00  0.00    +0.150 HD
BRANCH  47  49
ATOM     49  CA  GLY A   7      25.276 -46.515  12.421  0.00  0.00    +0.176 C 
BRANCH  49  50
ATOM     50  C   GLY A   7      25.436 -47.406  13.637  0.00  0.00    +0.243 C 
ATOM     51  N   GLY A   8      24.655 -47.156  14.678  0.00  0.00    -0.296 N 
ATOM     52  H   GLY A   8      23.966 -46.378  14.641  0.00  0.00    +0.150 HD
ATOM     53  O   GLY A   7      26.265 -48.314  13.640  0.00  0.00    -0.273 OA
BRANCH  51  54
ATOM     54  CA  GLY A   8      24.768 -47.976  15.868  0.00  0.00    +0.163 C 
BRANCH  54  55
ATOM     55  C   GLY A   8      24.870 -47.184  17.155  0.00  0.00    +0.229 C 
ATOM     56  O   GLY A   8      24.186 -46.178  17.336  0.00  0.00    -0.286 OA
ENDBRANCH  54  55
ENDBRANCH  51  54
ENDBRANCH  49  50
ENDBRANCH  47  49
ENDBRANCH  44  45
BRANCH  44  57
ATOM     57  CB  ILE A   6      22.727 -42.764  11.549  0.00  0.00    +0.027 C 
ATOM     58  CG2 ILE A   6      23.514 -43.325  10.378  0.00  0.00    +0.002 C 
BRANCH  57  59
ATOM     59  CG1 ILE A   6      21.317 -42.355  11.121  0.00  0.00    +0.002 C 
ATOM     60  CD1 ILE A   6      20.486 -43.494  10.571  0.00  0.00    +0.000 C 
ENDBRANCH  57  59
ENDBRANCH  44  57
ENDBRANCH  42  44
ENDBRANCH  39  40
ENDBRANCH  37  39
ENDBRANCH  34  35
ENDBRANCH   3  34
TORSDOF 28
REMARK  Name = ../refined-set-2016/2fle/2fle_pocket.pdb
REMARK  238 active torsions:
REMARK  status: ('A' for Active; 'I' for Inactive)
REMARK    1  A    between atoms: _1  and  _3
REMARK    2  A    between atoms: _3  and  _4
REMARK    3  A    between atoms: _3  and  _6
REMARK    4  A    between atoms: _6  and  _7
REMARK    5  A    between atoms: _7  and  _8
REMARK    6  A    between atoms: _8  and  _9
REMARK    7  A    between atoms: _19  and  _20
REMARK    8  A    between atoms: _25  and  _27
REMARK    9  A    between atoms: _27  and  _28
REMARK   10  A    between atoms: _27  and  _30
REMARK   11  A    between atoms: _30  and  _31
REMARK   12  A    between atoms: _34  and  _36
REMARK   13  A    between atoms: _36  and  _37
REMARK   14  A    between atoms: _36  and  _39
REMARK   15  A    between atoms: _39  and  _40
REMARK   16  A    between atoms: _43  and  _45
REMARK   17  A    between atoms: _45  and  _46
REMARK   18  A    between atoms: _45  and  _48
REMARK   19  A    between atoms: _48  and  _49
REMARK   20  A    between atoms: _52  and  _54
REMARK   21  A    between atoms: _54  and  _55
REMARK   22  A    between atoms: _54  and  _57
REMARK   23  A    between atoms: _57  and  _58
REMARK   24  A    between atoms: _61  and  _63
REMARK   25  A    between atoms: _63  and  _64
REMARK   26  A    between atoms: _63  and  _66
REMARK   27  A    between atoms: _66  and  _67
REMARK   28  A    between atoms: _70  and  _72
REMARK   29  A    between atoms: _72  and  _73
REMARK   30  A    between atoms: _75  and  _77
REMARK   31  A    between atoms: _77  and  _78
REMARK   32  A    between atoms: _81  and  _83
REMARK   33  A    between atoms: _83  and  _84
REMARK   34  A    between atoms: _83  and  _86
REMARK   35  A    between atoms: _86  and  _87
REMARK   36  A    between atoms: _90  and  _92
REMARK   37  A    between atoms: _92  and  _93
REMARK   38  A    between atoms: _92  and  _95
REMARK   39  A    between atoms: _95  and  _96
REMARK   40  A    between atoms: _99  and  _101
REMARK   41  A    between atoms: _101  and  _102
REMARK   42  A    between atoms: _101  and  _104
REMARK   43  A    between atoms: _104  and  _105
REMARK   44  A    between atoms: _108  and  _110
REMARK   45  A    between atoms: _110  and  _111
REMARK   46  A    between atoms: _110  and  _113
REMARK   47  A    between atoms: _116  and  _118
REMARK   48  A    between atoms: _118  and  _119
REMARK   49  A    between atoms: _118  and  _121
REMARK   50  A    between atoms: _121  and  _122
REMARK   51  A    between atoms: _125  and  _127
REMARK   52  A    between atoms: _127  and  _128
REMARK   53  A    between atoms: _127  and  _130
REMARK   54  A    between atoms: _130  and  _131
REMARK   55  A    between atoms: _131  and  _132
REMARK   56  A    between atoms: _132  and  _133
REMARK   57  A    between atoms: _133  and  _134
REMARK   58  A    between atoms: _138  and  _140
REMARK   59  A    between atoms: _140  and  _141
REMARK   60  A    between atoms: _140  and  _143
REMARK   61  A    between atoms: _143  and  _144
REMARK   62  A    between atoms: _144  and  _145
REMARK   63  A    between atoms: _147  and  _149
REMARK   64  A    between atoms: _149  and  _150
REMARK   65  A    between atoms: _149  and  _152
REMARK   66  A    between atoms: _152  and  _153
REMARK   67  A    between atoms: _156  and  _158
REMARK   68  A    between atoms: _158  and  _159
REMARK   69  A    between atoms: _161  and  _163
REMARK   70  A    between atoms: _163  and  _164
REMARK   71  A    between atoms: _166  and  _168
REMARK   72  A    between atoms: _168  and  _169
REMARK   73  A    between atoms: _168  and  _171
REMARK   74  A    between atoms: _171  and  _172
REMARK   75  A    between atoms: _175  and  _177
REMARK   76  A    between atoms: _177  and  _178
REMARK   77  A    between atoms: _180  and  _182
REMARK   78  A    between atoms: _182  and  _183
REMARK   79  A    between atoms: _185  and  _187
REMARK   80  A    between atoms: _187  and  _188
REMARK   81  A    between atoms: _187  and  _190
REMARK   82  A    between atoms: _190  and  _191
REMARK   83  A    between atoms: _197  and  _199
REMARK   84  A    between atoms: _199  and  _200
REMARK   85  A    between atoms: _199  and  _202
REMARK   86  A    between atoms: _202  and  _203
REMARK   87  A    between atoms: _206  and  _208
REMARK   88  A    between atoms: _208  and  _209
REMARK   89  A    between atoms: _208  and  _211
REMARK   90  A    between atoms: _214  and  _216
REMARK   91  A    between atoms: _216  and  _217
REMARK   92  A    between atoms: _216  and  _219
REMARK   93  A    between atoms: _219  and  _220
REMARK   94  A    between atoms: _224  and  _225
REMARK   95  A    between atoms: _230  and  _232
REMARK   96  A    between atoms: _232  and  _233
REMARK   97  A    between atoms: _232  and  _235
REMARK   98  A    between atoms: _235  and  _236
REMARK   99  A    between atoms: _240  and  _241
REMARK  100  A    between atoms: _246  and  _248
REMARK  101  A    between atoms: _248  and  _249
REMARK  102  A    between atoms: _252  and  _254
REMARK  103  A    between atoms: _254  and  _255
REMARK  104  A    between atoms: _254  and  _257
REMARK  105  A    between atoms: _257  and  _258
REMARK  106  A    between atoms: _263  and  _265
REMARK  107  A    between atoms: _265  and  _266
REMARK  108  A    between atoms: _265  and  _268
REMARK  109  A    between atoms: _268  and  _269
REMARK  110  A    between atoms: _272  and  _274
REMARK  111  A    between atoms: _274  and  _275
REMARK  112  A    between atoms: _274  and  _277
REMARK  113  A    between atoms: _277  and  _278
REMARK  114  A    between atoms: _281  and  _283
REMARK  115  A    between atoms: _283  and  _284
REMARK  116  A    between atoms: _286  and  _288
REMARK  117  A    between atoms: _288  and  _289
REMARK  118  A    between atoms: _288  and  _291
REMARK  119  A    between atoms: _291  and  _292
REMARK  120  A    between atoms: _292  and  _293
REMARK  121  A    between atoms: _293  and  _294
REMARK  122  A    between atoms: _303  and  _305
REMARK  123  A    between atoms: _305  and  _306
REMARK  124  A    between atoms: _305  and  _308
REMARK  125  A    between atoms: _308  and  _309
REMARK  126  A    between atoms: _309  and  _310
REMARK  127  A    between atoms: _310  and  _311
REMARK  128  A    between atoms: _321  and  _322
REMARK  129  A    between atoms: _327  and  _329
REMARK  130  A    between atoms: _329  and  _330
REMARK  131  A    between atoms: _329  and  _332
REMARK  132  A    between atoms: _332  and  _333
REMARK  133  A    between atoms: _336  and  _338
REMARK  134  A    between atoms: _338  and  _339
REMARK  135  A    between atoms: _338  and  _341
REMARK  136  A    between atoms: _341  and  _342
REMARK  137  A    between atoms: _345  and  _347
REMARK  138  A    between atoms: _347  and  _348
REMARK  139  A    between atoms: _347  and  _350
REMARK  140  A    between atoms: _350  and  _351
REMARK  141  A    between atoms: _354  and  _356
REMARK  142  A    between atoms: _356  and  _357
REMARK  143  A    between atoms: _356  and  _359
REMARK  144  A    between atoms: _359  and  _360
REMARK  145  A    between atoms: _363  and  _365
REMARK  146  A    between atoms: _365  and  _366
REMARK  147  A    between atoms: _365  and  _368
REMARK  148  A    between atoms: _368  and  _369
REMARK  149  A    between atoms: _372  and  _374
REMARK  150  A    between atoms: _374  and  _375
REMARK  151  A    between atoms: _377  and  _379
REMARK  152  A    between atoms: _379  and  _380
REMARK  153  A    between atoms: _383  and  _385
REMARK  154  A    between atoms: _385  and  _386
REMARK  155  A    between atoms: _385  and  _388
REMARK  156  A    between atoms: _388  and  _389
REMARK  157  A    between atoms: _392  and  _394
REMARK  158  A    between atoms: _394  and  _395
REMARK  159  A    between atoms: _394  and  _397
REMARK  160  A    between atoms: _397  and  _398
REMARK  161  A    between atoms: _401  and  _403
REMARK  162  A    between atoms: _403  and  _404
REMARK  163  A    between atoms: _403  and  _406
REMARK  164  A    between atoms: _406  and  _407
REMARK  165  A    between atoms: _410  and  _412
REMARK  166  A    between atoms: _412  and  _413
REMARK  167  A    between atoms: _412  and  _415
REMARK  168  A    between atoms: _418  and  _420
REMARK  169  A    between atoms: _420  and  _421
REMARK  170  A    between atoms: _420  and  _423
REMARK  171  A    between atoms: _423  and  _424
REMARK  172  A    between atoms: _427  and  _429
REMARK  173  A    between atoms: _429  and  _430
REMARK  174  A    between atoms: _429  and  _432
REMARK  175  A    between atoms: _432  and  _433
REMARK  176  A    between atoms: _433  and  _434
REMARK  177  A    between atoms: _434  and  _435
REMARK  178  A    between atoms: _435  and  _436
REMARK  179  A    between atoms: _440  and  _442
REMARK  180  A    between atoms: _442  and  _443
REMARK  181  A    between atoms: _442  and  _445
REMARK  182  A    between atoms: _445  and  _446
REMARK  183  A    between atoms: _446  and  _447
REMARK  184  A    between atoms: _449  and  _451
REMARK  185  A    between atoms: _451  and  _452
REMARK  186  A    between atoms: _451  and  _454
REMARK  187  A    between atoms: _454  and  _455
REMARK  188  A    between atoms: _458  and  _460
REMARK  189  A    between atoms: _460  and  _461
REMARK  190  A    between atoms: _463  and  _465
REMARK  191  A    between atoms: _465  and  _466
REMARK  192  A    between atoms: _468  and  _470
REMARK  193  A    between atoms: _470  and  _471
REMARK  194  A    between atoms: _470  and  _473
REMARK  195  A    between atoms: _473  and  _474
REMARK  196  A    between atoms: _477  and  _479
REMARK  197  A    between atoms: _479  and  _480
REMARK  198  A    between atoms: _482  and  _484
REMARK  199  A    between atoms: _484  and  _485
REMARK  200  A    between atoms: _487  and  _489
REMARK  201  A    between atoms: _489  and  _490
REMARK  202  A    between atoms: _489  and  _492
REMARK  203  A    between atoms: _492  and  _493
REMARK  204  A    between atoms: _496  and  _498
REMARK  205  A    between atoms: _498  and  _499
REMARK  206  A    between atoms: _498  and  _501
REMARK  207  A    between atoms: _504  and  _506
REMARK  208  A    between atoms: _506  and  _507
REMARK  209  A    between atoms: _506  and  _509
REMARK  210  A    between atoms: _509  and  _510
REMARK  211  A    between atoms: _514  and  _515
REMARK  212  A    between atoms: _520  and  _522
REMARK  213  A    between atoms: _522  and  _523
REMARK  214  A    between atoms: _522  and  _525
REMARK  215  A    between atoms: _525  and  _526
REMARK  216  A    between atoms: _530  and  _531
REMARK  217  A    between atoms: _536  and  _538
REMARK  218  A    between atoms: _538  and  _539
REMARK  219  A    between atoms: _542  and  _544
REMARK  220  A    between atoms: _544  and  _545
REMARK  221  A    between atoms: _544  and  _547
REMARK  222  A    between atoms: _547  and  _548
REMARK  223  A    between atoms: _553  and  _555
REMARK  224  A    between atoms: _555  and  _556
REMARK  225  A    between atoms: _555  and  _558
REMARK  226  A    between atoms: _558  and  _559
REMARK  227  A    between atoms: _562  and  _564
REMARK  228  A    between atoms: _564  and  _565
REMARK  229  A    between atoms: _564  and  _567
REMARK  230  A    between atoms: _567  and  _568
REMARK  231  A    between atoms: _571  and  _573
REMARK  232  A    between atoms: _573  and  _574
REMARK  233  A    between atoms: _576  and  _578
REMARK  234  A    between atoms: _578  and  _579
REMARK  235  A    between atoms: _578  and  _581
REMARK  236  A    between atoms: _581  and  _582
REMARK  237  A    between atoms: _582  and  _583
REMARK  238  A    between atoms: _583  and  _584
REMARK                            x       y       z     vdW  Elec       q    Type
REMARK                         _______ _______ _______ _____ _____    ______ ____
ROOT
ATOM      1  CA  ILE A   1      28.792 -45.349  21.150  0.00  0.00    +0.133 C 
ENDROOT
BRANCH   1   2
ATOM      2  N   ILE A   1      27.482 -45.744  20.663  0.00  0.00    -0.239 NA
ATOM      3  H   ILE A   1      26.636 -45.324  21.098  0.00  0.00    +0.142 HD
ENDBRANCH   1   2
BRANCH   1   4
ATOM      4  C   ILE A   1      28.693 -45.226  22.658  0.00  0.00    +0.224 C 
ATOM      5  O   ILE A   1      27.622 -44.953  23.209  0.00  0.00    -0.287 OA
ENDBRANCH   1   4
BRANCH   1   6
ATOM      6  CB  ILE A   1      29.267 -43.991  20.585  0.00  0.00    +0.023 C 
ATOM      7  CG2 ILE A   1      29.428 -44.083  19.080  0.00  0.00    +0.002 C 
BRANCH   6   8
ATOM      8  CG1 ILE A   1      28.289 -42.883  20.978  0.00  0.00    +0.002 C 
ATOM      9  CD1 ILE A   1      28.879 -41.485  20.867  0.00  0.00    +0.000 C 
ENDBRANCH   6   8
ENDBRANCH   1   6
TORSDOF 4
REMARK  Name = ../refined-set-2016/2fle/2fle_pocket.pdb
REMARK  238 active torsions:
REMARK  status: ('A' for Active; 'I' for Inactive)
REMARK    1  A    between atoms: _1  and  _3
REMARK    2  A    between atoms: _3  and  _4
REMARK    3  A    between atoms: _3  and  _6
REMARK    4  A    between atoms: _6  and  _7
REMARK    5  A    between atoms: _7  and  _8
REMARK    6  A    between atoms: _8  and  _9
REMARK    7  A    between atoms: _19  and  _20
REMARK    8  A    between atoms: _25  and  _27
REMARK    9  A    between atoms: _27  and  _28
REMARK   10  A    between atoms: _27  and  _30
REMARK   11  A    between atoms: _30  and  _31
REMARK   12  A    between atoms: _34  and  _36
REMARK   13  A    between atoms: _36  and  _37
REMARK   14  A    between atoms: _36  and  _39
REMARK   15  A    between atoms: _39  and  _40
REMARK   16  A    between atoms: _43  and  _45
REMARK   17  A    between atoms: _45  and  _46
REMARK   18  A    between atoms: _45  and  _48
REMARK   19  A    between atoms: _48  and  _49
REMARK   20  A    between atoms: _52  and  _54
REMARK   21  A    between atoms: _54  and  _55
REMARK   22  A    between atoms: _54  and  _57
REMARK   23  A    between atoms: _57  and  _58
REMARK   24  A    between atoms: _61  and  _63
REMARK   25  A    between atoms: _63  and  _64
REMARK   26  A    between atoms: _63  and  _66
REMARK   27  A    between atoms: _66  and  _67
REMARK   28  A    between atoms: _70  and  _72
REMARK   29  A    between atoms: _72  and  _73
REMARK   30  A    between atoms: _75  and  _77
REMARK   31  A    between atoms: _77  and  _78
REMARK   32  A    between atoms: _81  and  _83
REMARK   33  A    between atoms: _83  and  _84
REMARK   34  A    between atoms: _83  and  _86
REMARK   35  A    between atoms: _86  and  _87
REMARK   36  A    between atoms: _90  and  _92
REMARK   37  A    between atoms: _92  and  _93
REMARK   38  A    between atoms: _92  and  _95
REMARK   39  A    between atoms: _95  and  _96
REMARK   40  A    between atoms: _99  and  _101
REMARK   41  A    between atoms: _101  and  _102
REMARK   42  A    between atoms: _101  and  _104
REMARK   43  A    between atoms: _104  and  _105
REMARK   44  A    between atoms: _108  and  _110
REMARK   45  A    between atoms: _110  and  _111
REMARK   46  A    between atoms: _110  and  _113
REMARK   47  A    between atoms: _116  and  _118
REMARK   48  A    between atoms: _118  and  _119
REMARK   49  A    between atoms: _118  and  _121
REMARK   50  A    between atoms: _121  and  _122
REMARK   51  A    between atoms: _125  and  _127
REMARK   52  A    between atoms: _127  and  _128
REMARK   53  A    between atoms: _127  and  _130
REMARK   54  A    between atoms: _130  and  _131
REMARK   55  A    between atoms: _131  and  _132
REMARK   56  A    between atoms: _132  and  _133
REMARK   57  A    between atoms: _133  and  _134
REMARK   58  A    between atoms: _138  and  _140
REMARK   59  A    between atoms: _140  and  _141
REMARK   60  A    between atoms: _140  and  _143
REMARK   61  A    between atoms: _143  and  _144
REMARK   62  A    between atoms: _144  and  _145
REMARK   63  A    between atoms: _147  and  _149
REMARK   64  A    between atoms: _149  and  _150
REMARK   65  A    between atoms: _149  and  _152
REMARK   66  A    between atoms: _152  and  _153
REMARK   67  A    between atoms: _156  and  _158
REMARK   68  A    between atoms: _158  and  _159
REMARK   69  A    between atoms: _161  and  _163
REMARK   70  A    between atoms: _163  and  _164
REMARK   71  A    between atoms: _166  and  _168
REMARK   72  A    between atoms: _168  and  _169
REMARK   73  A    between atoms: _168  and  _171
REMARK   74  A    between atoms: _171  and  _172
REMARK   75  A    between atoms: _175  and  _177
REMARK   76  A    between atoms: _177  and  _178
REMARK   77  A    between atoms: _180  and  _182
REMARK   78  A    between atoms: _182  and  _183
REMARK   79  A    between atoms: _185  and  _187
REMARK   80  A    between atoms: _187  and  _188
REMARK   81  A    between atoms: _187  and  _190
REMARK   82  A    between atoms: _190  and  _191
REMARK   83  A    between atoms: _197  and  _199
REMARK   84  A    between atoms: _199  and  _200
REMARK   85  A    between atoms: _199  and  _202
REMARK   86  A    between atoms: _202  and  _203
REMARK   87  A    between atoms: _206  and  _208
REMARK   88  A    between atoms: _208  and  _209
REMARK   89  A    between atoms: _208  and  _211
REMARK   90  A    between atoms: _214  and  _216
REMARK   91  A    between atoms: _216  and  _217
REMARK   92  A    between atoms: _216  and  _219
REMARK   93  A    between atoms: _219  and  _220
REMARK   94  A    between atoms: _224  and  _225
REMARK   95  A    between atoms: _230  and  _232
REMARK   96  A    between atoms: _232  and  _233
REMARK   97  A    between atoms: _232  and  _235
REMARK   98  A    between atoms: _235  and  _236
REMARK   99  A    between atoms: _240  and  _241
REMARK  100  A    between atoms: _246  and  _248
REMARK  101  A    between atoms: _248  and  _249
REMARK  102  A    between atoms: _252  and  _254
REMARK  103  A    between atoms: _254  and  _255
REMARK  104  A    between atoms: _254  and  _257
REMARK  105  A    between atoms: _257  and  _258
REMARK  106  A    between atoms: _263  and  _265
REMARK  107  A    between atoms: _265  and  _266
REMARK  108  A    between atoms: _265  and  _268
REMARK  109  A    between atoms: _268  and  _269
REMARK  110  A    between atoms: _272  and  _274
REMARK  111  A    between atoms: _274  and  _275
REMARK  112  A    between atoms: _274  and  _277
REMARK  113  A    between atoms: _277  and  _278
REMARK  114  A    between atoms: _281  and  _283
REMARK  115  A    between atoms: _283  and  _284
REMARK  116  A    between atoms: _286  and  _288
REMARK  117  A    between atoms: _288  and  _289
REMARK  118  A    between atoms: _288  and  _291
REMARK  119  A    between atoms: _291  and  _292
REMARK  120  A    between atoms: _292  and  _293
REMARK  121  A    between atoms: _293  and  _294
REMARK  122  A    between atoms: _303  and  _305
REMARK  123  A    between atoms: _305  and  _306
REMARK  124  A    between atoms: _305  and  _308
REMARK  125  A    between atoms: _308  and  _309
REMARK  126  A    between atoms: _309  and  _310
REMARK  127  A    between atoms: _310  and  _311
REMARK  128  A    between atoms: _321  and  _322
REMARK  129  A    between atoms: _327  and  _329
REMARK  130  A    between atoms: _329  and  _330
REMARK  131  A    between atoms: _329  and  _332
REMARK  132  A    between atoms: _332  and  _333
REMARK  133  A    between atoms: _336  and  _338
REMARK  134  A    between atoms: _338  and  _339
REMARK  135  A    between atoms: _338  and  _341
REMARK  136  A    between atoms: _341  and  _342
REMARK  137  A    between atoms: _345  and  _347
REMARK  138  A    between atoms: _347  and  _348
REMARK  139  A    between atoms: _347  and  _350
REMARK  140  A    between atoms: _350  and  _351
REMARK  141  A    between atoms: _354  and  _356
REMARK  142  A    between atoms: _356  and  _357
REMARK  143  A    between atoms: _356  and  _359
REMARK  144  A    between atoms: _359  and  _360
REMARK  145  A    between atoms: _363  and  _365
REMARK  146  A    between atoms: _365  and  _366
REMARK  147  A    between atoms: _365  and  _368
REMARK  148  A    between atoms: _368  and  _369
REMARK  149  A    between atoms: _372  and  _374
REMARK  150  A    between atoms: _374  and  _375
REMARK  151  A    between atoms: _377  and  _379
REMARK  152  A    between atoms: _379  and  _380
REMARK  153  A    between atoms: _383  and  _385
REMARK  154  A    between atoms: _385  and  _386
REMARK  155  A    between atoms: _385  and  _388
REMARK  156  A    between atoms: _388  and  _389
REMARK  157  A    between atoms: _392  and  _394
REMARK  158  A    between atoms: _394  and  _395
REMARK  159  A    between atoms: _394  and  _397
REMARK  160  A    between atoms: _397  and  _398
REMARK  161  A    between atoms: _401  and  _403
REMARK  162  A    between atoms: _403  and  _404
REMARK  163  A    between atoms: _403  and  _406
REMARK  164  A    between atoms: _406  and  _407
REMARK  165  A    between atoms: _410  and  _412
REMARK  166  A    between atoms: _412  and  _413
REMARK  167  A    between atoms: _412  and  _415
REMARK  168  A    between atoms: _418  and  _420
REMARK  169  A    between atoms: _420  and  _421
REMARK  170  A    between atoms: _420  and  _423
REMARK  171  A    between atoms: _423  and  _424
REMARK  172  A    between atoms: _427  and  _429
REMARK  173  A    between atoms: _429  and  _430
REMARK  174  A    between atoms: _429  and  _432
REMARK  175  A    between atoms: _432  and  _433
REMARK  176  A    between atoms: _433  and  _434
REMARK  177  A    between atoms: _434  and  _435
REMARK  178  A    between atoms: _435  and  _436
REMARK  179  A    between atoms: _440  and  _442
REMARK  180  A    between atoms: _442  and  _443
REMARK  181  A    between atoms: _442  and  _445
REMARK  182  A    between atoms: _445  and  _446
REMARK  183  A    between atoms: _446  and  _447
REMARK  184  A    between atoms: _449  and  _451
REMARK  185  A    between atoms: _451  and  _452
REMARK  186  A    between atoms: _451  and  _454
REMARK  187  A    between atoms: _454  and  _455
REMARK  188  A    between atoms: _458  and  _460
REMARK  189  A    between atoms: _460  and  _461
REMARK  190  A    between atoms: _463  and  _465
REMARK  191  A    between atoms: _465  and  _466
REMARK  192  A    between atoms: _468  and  _470
REMARK  193  A    between atoms: _470  and  _471
REMARK  194  A    between atoms: _470  and  _473
REMARK  195  A    between atoms: _473  and  _474
REMARK  196  A    between atoms: _477  and  _479
REMARK  197  A    between atoms: _479  and  _480
REMARK  198  A    between atoms: _482  and  _484
REMARK  199  A    between atoms: _484  and  _485
REMARK  200  A    between atoms: _487  and  _489
REMARK  201  A    between atoms: _489  and  _490
REMARK  202  A    between atoms: _489  and  _492
REMARK  203  A    between atoms: _492  and  _493
REMARK  204  A    between atoms: _496  and  _498
REMARK  205  A    between atoms: _498  and  _499
REMARK  206  A    between atoms: _498  and  _501
REMARK  207  A    between atoms: _504  and  _506
REMARK  208  A    between atoms: _506  and  _507
REMARK  209  A    between atoms: _506  and  _509
REMARK  210  A    between atoms: _509  and  _510
REMARK  211  A    between atoms: _514  and  _515
REMARK  212  A    between atoms: _520  and  _522
REMARK  213  A    between atoms: _522  and  _523
REMARK  214  A    between atoms: _522  and  _525
REMARK  215  A    between atoms: _525  and  _526
REMARK  216  A    between atoms: _530  and  _531
REMARK  217  A    between atoms: _536  and  _538
REMARK  218  A    between atoms: _538  and  _539
REMARK  219  A    between atoms: _542  and  _544
REMARK  220  A    between atoms: _544  and  _545
REMARK  221  A    between atoms: _544  and  _547
REMARK  222  A    between atoms: _547  and  _548
REMARK  223  A    between atoms: _553  and  _555
REMARK  224  A    between atoms: _555  and  _556
REMARK  225  A    between atoms: _555  and  _558
REMARK  226  A    between atoms: _558  and  _559
REMARK  227  A    between atoms: _562  and  _564
REMARK  228  A    between atoms: _564  and  _565
REMARK  229  A    between atoms: _564  and  _567
REMARK  230  A    between atoms: _567  and  _568
REMARK  231  A    between atoms: _571  and  _573
REMARK  232  A    between atoms: _573  and  _574
REMARK  233  A    between atoms: _576  and  _578
REMARK  234  A    between atoms: _578  and  _579
REMARK  235  A    between atoms: _578  and  _581
REMARK  236  A    between atoms: _581  and  _582
REMARK  237  A    between atoms: _582  and  _583
REMARK  238  A    between atoms: _583  and  _584
REMARK                            x       y       z     vdW  Elec       q    Type
REMARK                         _______ _______ _______ _____ _____    ______ ____
ROOT
ATOM      1  CA  VAL A   1      30.009 -41.930  26.406  0.00  0.00    +0.133 C 
ENDROOT
BRANCH   1   2
ATOM      2  CB  VAL A   1      29.017 -40.908  25.807  0.00  0.00    +0.023 C 
ATOM      3  CG2 VAL A   1      27.611 -41.158  26.357  0.00  0.00    +0.002 C 
ATOM      4  CG1 VAL A   1      29.021 -41.006  24.289  0.00  0.00    +0.002 C 
ENDBRANCH   1   2
BRANCH   1   5
ATOM      5  N   VAL A   1      29.649 -43.284  26.019  0.00  0.00    -0.239 NA
ATOM      6  H   VAL A   1      28.840 -43.748  26.478  0.00  0.00    +0.142 HD
ENDBRANCH   1   5
BRANCH   1   7
ATOM      7  C   VAL A   1      29.999 -41.776  27.918  0.00  0.00    +0.224 C 
ATOM      8  O   VAL A   1      29.559 -42.671  28.642  0.00  0.00    -0.287 OA
ENDBRANCH   1   7
TORSDOF 3
REMARK  Name = ../refined-set-2016/2fle/2fle_pocket.pdb
REMARK  238 active torsions:
REMARK  status: ('A' for Active; 'I' for Inactive)
REMARK    1  A    between atoms: _1  and  _3
REMARK    2  A    between atoms: _3  and  _4
REMARK    3  A    between atoms: _3  and  _6
REMARK    4  A    between atoms: _6  and  _7
REMARK    5  A    between atoms: _7  and  _8
REMARK    6  A    between atoms: _8  and  _9
REMARK    7  A    between atoms: _19  and  _20
REMARK    8  A    between atoms: _25  and  _27
REMARK    9  A    between atoms: _27  and  _28
REMARK   10  A    between atoms: _27  and  _30
REMARK   11  A    between atoms: _30  and  _31
REMARK   12  A    between atoms: _34  and  _36
REMARK   13  A    between atoms: _36  and  _37
REMARK   14  A    between atoms: _36  and  _39
REMARK   15  A    between atoms: _39  and  _40
REMARK   16  A    between atoms: _43  and  _45
REMARK   17  A    between atoms: _45  and  _46
REMARK   18  A    between atoms: _45  and  _48
REMARK   19  A    between atoms: _48  and  _49
REMARK   20  A    between atoms: _52  and  _54
REMARK   21  A    between atoms: _54  and  _55
REMARK   22  A    between atoms: _54  and  _57
REMARK   23  A    between atoms: _57  and  _58
REMARK   24  A    between atoms: _61  and  _63
REMARK   25  A    between atoms: _63  and  _64
REMARK   26  A    between atoms: _63  and  _66
REMARK   27  A    between atoms: _66  and  _67
REMARK   28  A    between atoms: _70  and  _72
REMARK   29  A    between atoms: _72  and  _73
REMARK   30  A    between atoms: _75  and  _77
REMARK   31  A    between atoms: _77  and  _78
REMARK   32  A    between atoms: _81  and  _83
REMARK   33  A    between atoms: _83  and  _84
REMARK   34  A    between atoms: _83  and  _86
REMARK   35  A    between atoms: _86  and  _87
REMARK   36  A    between atoms: _90  and  _92
REMARK   37  A    between atoms: _92  and  _93
REMARK   38  A    between atoms: _92  and  _95
REMARK   39  A    between atoms: _95  and  _96
REMARK   40  A    between atoms: _99  and  _101
REMARK   41  A    between atoms: _101  and  _102
REMARK   42  A    between atoms: _101  and  _104
REMARK   43  A    between atoms: _104  and  _105
REMARK   44  A    between atoms: _108  and  _110
REMARK   45  A    between atoms: _110  and  _111
REMARK   46  A    between atoms: _110  and  _113
REMARK   47  A    between atoms: _116  and  _118
REMARK   48  A    between atoms: _118  and  _119
REMARK   49  A    between atoms: _118  and  _121
REMARK   50  A    between atoms: _121  and  _122
REMARK   51  A    between atoms: _125  and  _127
REMARK   52  A    between atoms: _127  and  _128
REMARK   53  A    between atoms: _127  and  _130
REMARK   54  A    between atoms: _130  and  _131
REMARK   55  A    between atoms: _131  and  _132
REMARK   56  A    between atoms: _132  and  _133
REMARK   57  A    between atoms: _133  and  _134
REMARK   58  A    between atoms: _138  and  _140
REMARK   59  A    between atoms: _140  and  _141
REMARK   60  A    between atoms: _140  and  _143
REMARK   61  A    between atoms: _143  and  _144
REMARK   62  A    between atoms: _144  and  _145
REMARK   63  A    between atoms: _147  and  _149
REMARK   64  A    between atoms: _149  and  _150
REMARK   65  A    between atoms: _149  and  _152
REMARK   66  A    between atoms: _152  and  _153
REMARK   67  A    between atoms: _156  and  _158
REMARK   68  A    between atoms: _158  and  _159
REMARK   69  A    between atoms: _161  and  _163
REMARK   70  A    between atoms: _163  and  _164
REMARK   71  A    between atoms: _166  and  _168
REMARK   72  A    between atoms: _168  and  _169
REMARK   73  A    between atoms: _168  and  _171
REMARK   74  A    between atoms: _171  and  _172
REMARK   75  A    between atoms: _175  and  _177
REMARK   76  A    between atoms: _177  and  _178
REMARK   77  A    between atoms: _180  and  _182
REMARK   78  A    between atoms: _182  and  _183
REMARK   79  A    between atoms: _185  and  _187
REMARK   80  A    between atoms: _187  and  _188
REMARK   81  A    between atoms: _187  and  _190
REMARK   82  A    between atoms: _190  and  _191
REMARK   83  A    between atoms: _197  and  _199
REMARK   84  A    between atoms: _199  and  _200
REMARK   85  A    between atoms: _199  and  _202
REMARK   86  A    between atoms: _202  and  _203
REMARK   87  A    between atoms: _206  and  _208
REMARK   88  A    between atoms: _208  and  _209
REMARK   89  A    between atoms: _208  and  _211
REMARK   90  A    between atoms: _214  and  _216
REMARK   91  A    between atoms: _216  and  _217
REMARK   92  A    between atoms: _216  and  _219
REMARK   93  A    between atoms: _219  and  _220
REMARK   94  A    between atoms: _224  and  _225
REMARK   95  A    between atoms: _230  and  _232
REMARK   96  A    between atoms: _232  and  _233
REMARK   97  A    between atoms: _232  and  _235
REMARK   98  A    between atoms: _235  and  _236
REMARK   99  A    between atoms: _240  and  _241
REMARK  100  A    between atoms: _246  and  _248
REMARK  101  A    between atoms: _248  and  _249
REMARK  102  A    between atoms: _252  and  _254
REMARK  103  A    between atoms: _254  and  _255
REMARK  104  A    between atoms: _254  and  _257
REMARK  105  A    between atoms: _257  and  _258
REMARK  106  A    between atoms: _263  and  _265
REMARK  107  A    between atoms: _265  and  _266
REMARK  108  A    between atoms: _265  and  _268
REMARK  109  A    between atoms: _268  and  _269
REMARK  110  A    between atoms: _272  and  _274
REMARK  111  A    between atoms: _274  and  _275
REMARK  112  A    between atoms: _274  and  _277
REMARK  113  A    between atoms: _277  and  _278
REMARK  114  A    between atoms: _281  and  _283
REMARK  115  A    between atoms: _283  and  _284
REMARK  116  A    between atoms: _286  and  _288
REMARK  117  A    between atoms: _288  and  _289
REMARK  118  A    between atoms: _288  and  _291
REMARK  119  A    between atoms: _291  and  _292
REMARK  120  A    between atoms: _292  and  _293
REMARK  121  A    between atoms: _293  and  _294
REMARK  122  A    between atoms: _303  and  _305
REMARK  123  A    between atoms: _305  and  _306
REMARK  124  A    between atoms: _305  and  _308
REMARK  125  A    between atoms: _308  and  _309
REMARK  126  A    between atoms: _309  and  _310
REMARK  127  A    between atoms: _310  and  _311
REMARK  128  A    between atoms: _321  and  _322
REMARK  129  A    between atoms: _327  and  _329
REMARK  130  A    between atoms: _329  and  _330
REMARK  131  A    between atoms: _329  and  _332
REMARK  132  A    between atoms: _332  and  _333
REMARK  133  A    between atoms: _336  and  _338
REMARK  134  A    between atoms: _338  and  _339
REMARK  135  A    between atoms: _338  and  _341
REMARK  136  A    between atoms: _341  and  _342
REMARK  137  A    between atoms: _345  and  _347
REMARK  138  A    between atoms: _347  and  _348
REMARK  139  A    between atoms: _347  and  _350
REMARK  140  A    between atoms: _350  and  _351
REMARK  141  A    between atoms: _354  and  _356
REMARK  142  A    between atoms: _356  and  _357
REMARK  143  A    between atoms: _356  and  _359
REMARK  144  A    between atoms: _359  and  _360
REMARK  145  A    between atoms: _363  and  _365
REMARK  146  A    between atoms: _365  and  _366
REMARK  147  A    between atoms: _365  and  _368
REMARK  148  A    between atoms: _368  and  _369
REMARK  149  A    between atoms: _372  and  _374
REMARK  150  A    between atoms: _374  and  _375
REMARK  151  A    between atoms: _377  and  _379
REMARK  152  A    between atoms: _379  and  _380
REMARK  153  A    between atoms: _383  and  _385
REMARK  154  A    between atoms: _385  and  _386
REMARK  155  A    between atoms: _385  and  _388
REMARK  156  A    between atoms: _388  and  _389
REMARK  157  A    between atoms: _392  and  _394
REMARK  158  A    between atoms: _394  and  _395
REMARK  159  A    between atoms: _394  and  _397
REMARK  160  A    between atoms: _397  and  _398
REMARK  161  A    between atoms: _401  and  _403
REMARK  162  A    between atoms: _403  and  _404
REMARK  163  A    between atoms: _403  and  _406
REMARK  164  A    between atoms: _406  and  _407
REMARK  165  A    between atoms: _410  and  _412
REMARK  166  A    between atoms: _412  and  _413
REMARK  167  A    between atoms: _412  and  _415
REMARK  168  A    between atoms: _418  and  _420
REMARK  169  A    between atoms: _420  and  _421
REMARK  170  A    between atoms: _420  and  _423
REMARK  171  A    between atoms: _423  and  _424
REMARK  172  A    between atoms: _427  and  _429
REMARK  173  A    between atoms: _429  and  _430
REMARK  174  A    between atoms: _429  and  _432
REMARK  175  A    between atoms: _432  and  _433
REMARK  176  A    between atoms: _433  and  _434
REMARK  177  A    between atoms: _434  and  _435
REMARK  178  A    between atoms: _435  and  _436
REMARK  179  A    between atoms: _440  and  _442
REMARK  180  A    between atoms: _442  and  _443
REMARK  181  A    between atoms: _442  and  _445
REMARK  182  A    between atoms: _445  and  _446
REMARK  183  A    between atoms: _446  and  _447
REMARK  184  A    between atoms: _449  and  _451
REMARK  185  A    between atoms: _451  and  _452
REMARK  186  A    between atoms: _451  and  _454
REMARK  187  A    between atoms: _454  and  _455
REMARK  188  A    between atoms: _458  and  _460
REMARK  189  A    between atoms: _460  and  _461
REMARK  190  A    between atoms: _463  and  _465
REMARK  191  A    between atoms: _465  and  _466
REMARK  192  A    between atoms: _468  and  _470
REMARK  193  A    between atoms: _470  and  _471
REMARK  194  A    between atoms: _470  and  _473
REMARK  195  A    between atoms: _473  and  _474
REMARK  196  A    between atoms: _477  and  _479
REMARK  197  A    between atoms: _479  and  _480
REMARK  198  A    between atoms: _482  and  _484
REMARK  199  A    between atoms: _484  and  _485
REMARK  200  A    between atoms: _487  and  _489
REMARK  201  A    between atoms: _489  and  _490
REMARK  202  A    between atoms: _489  and  _492
REMARK  203  A    between atoms: _492  and  _493
REMARK  204  A    between atoms: _496  and  _498
REMARK  205  A    between atoms: _498  and  _499
REMARK  206  A    between atoms: _498  and  _501
REMARK  207  A    between atoms: _504  and  _506
REMARK  208  A    between atoms: _506  and  _507
REMARK  209  A    between atoms: _506  and  _509
REMARK  210  A    between atoms: _509  and  _510
REMARK  211  A    between atoms: _514  and  _515
REMARK  212  A    between atoms: _520  and  _522
REMARK  213  A    between atoms: _522  and  _523
REMARK  214  A    between atoms: _522  and  _525
REMARK  215  A    between atoms: _525  and  _526
REMARK  216  A    between atoms: _530  and  _531
REMARK  217  A    between atoms: _536  and  _538
REMARK  218  A    between atoms: _538  and  _539
REMARK  219  A    between atoms: _542  and  _544
REMARK  220  A    between atoms: _544  and  _545
REMARK  221  A    between atoms: _544  and  _547
REMARK  222  A    between atoms: _547  and  _548
REMARK  223  A    between atoms: _553  and  _555
REMARK  224  A    between atoms: _555  and  _556
REMARK  225  A    between atoms: _555  and  _558
REMARK  226  A    between atoms: _558  and  _559
REMARK  227  A    between atoms: _562  and  _564
REMARK  228  A    between atoms: _564  and  _565
REMARK  229  A    between atoms: _564  and  _567
REMARK  230  A    between atoms: _567  and  _568
REMARK  231  A    between atoms: _571  and  _573
REMARK  232  A    between atoms: _573  and  _574
REMARK  233  A    between atoms: _576  and  _578
REMARK  234  A    between atoms: _578  and  _579
REMARK  235  A    between atoms: _578  and  _581
REMARK  236  A    between atoms: _581  and  _582
REMARK  237  A    between atoms: _582  and  _583
REMARK  238  A    between atoms: _583  and  _584
REMARK                            x       y       z     vdW  Elec       q    Type
REMARK                         _______ _______ _______ _____ _____    ______ ____
ROOT
ATOM      1  CA  LEU A   1      27.438 -36.526  27.131  0.00  0.00    +0.133 C 
ENDROOT
BRANCH   1   2
ATOM      2  N   LEU A   1      26.750 -35.272  27.359  0.00  0.00    -0.239 NA
ATOM      3  H   LEU A   1      26.215 -34.837  26.581  0.00  0.00    +0.142 HD
ENDBRANCH   1   2
BRANCH   1   4
ATOM      4  C   LEU A   1      28.739 -36.260  26.389  0.00  0.00    +0.224 C 
ATOM      5  O   LEU A   1      28.797 -35.416  25.493  0.00  0.00    -0.287 OA
ENDBRANCH   1   4
BRANCH   1   6
ATOM      6  CB  LEU A   1      26.541 -37.474  26.329  0.00  0.00    +0.025 C 
BRANCH   6   7
ATOM      7  CG  LEU A   1      25.120 -37.645  26.890  0.00  0.00    +0.002 C 
ATOM      8  CD2 LEU A   1      25.191 -38.231  28.290  0.00  0.00    +0.000 C 
ATOM      9  CD1 LEU A   1      24.302 -38.555  25.972  0.00  0.00    +0.000 C 
ENDBRANCH   6   7
ENDBRANCH   1   6
TORSDOF 4
REMARK  Name = ../refined-set-2016/2fle/2fle_pocket.pdb
REMARK  238 active torsions:
REMARK  status: ('A' for Active; 'I' for Inactive)
REMARK    1  A    between atoms: _1  and  _3
REMARK    2  A    between atoms: _3  and  _4
REMARK    3  A    between atoms: _3  and  _6
REMARK    4  A    between atoms: _6  and  _7
REMARK    5  A    between atoms: _7  and  _8
REMARK    6  A    between atoms: _8  and  _9
REMARK    7  A    between atoms: _19  and  _20
REMARK    8  A    between atoms: _25  and  _27
REMARK    9  A    between atoms: _27  and  _28
REMARK   10  A    between atoms: _27  and  _30
REMARK   11  A    between atoms: _30  and  _31
REMARK   12  A    between atoms: _34  and  _36
REMARK   13  A    between atoms: _36  and  _37
REMARK   14  A    between atoms: _36  and  _39
REMARK   15  A    between atoms: _39  and  _40
REMARK   16  A    between atoms: _43  and  _45
REMARK   17  A    between atoms: _45  and  _46
REMARK   18  A    between atoms: _45  and  _48
REMARK   19  A    between atoms: _48  and  _49
REMARK   20  A    between atoms: _52  and  _54
REMARK   21  A    between atoms: _54  and  _55
REMARK   22  A    between atoms: _54  and  _57
REMARK   23  A    between atoms: _57  and  _58
REMARK   24  A    between atoms: _61  and  _63
REMARK   25  A    between atoms: _63  and  _64
REMARK   26  A    between atoms: _63  and  _66
REMARK   27  A    between atoms: _66  and  _67
REMARK   28  A    between atoms: _70  and  _72
REMARK   29  A    between atoms: _72  and  _73
REMARK   30  A    between atoms: _75  and  _77
REMARK   31  A    between atoms: _77  and  _78
REMARK   32  A    between atoms: _81  and  _83
REMARK   33  A    between atoms: _83  and  _84
REMARK   34  A    between atoms: _83  and  _86
REMARK   35  A    between atoms: _86  and  _87
REMARK   36  A    between atoms: _90  and  _92
REMARK   37  A    between atoms: _92  and  _93
REMARK   38  A    between atoms: _92  and  _95
REMARK   39  A    between atoms: _95  and  _96
REMARK   40  A    between atoms: _99  and  _101
REMARK   41  A    between atoms: _101  and  _102
REMARK   42  A    between atoms: _101  and  _104
REMARK   43  A    between atoms: _104  and  _105
REMARK   44  A    between atoms: _108  and  _110
REMARK   45  A    between atoms: _110  and  _111
REMARK   46  A    between atoms: _110  and  _113
REMARK   47  A    between atoms: _116  and  _118
REMARK   48  A    between atoms: _118  and  _119
REMARK   49  A    between atoms: _118  and  _121
REMARK   50  A    between atoms: _121  and  _122
REMARK   51  A    between atoms: _125  and  _127
REMARK   52  A    between atoms: _127  and  _128
REMARK   53  A    between atoms: _127  and  _130
REMARK   54  A    between atoms: _130  and  _131
REMARK   55  A    between atoms: _131  and  _132
REMARK   56  A    between atoms: _132  and  _133
REMARK   57  A    between atoms: _133  and  _134
REMARK   58  A    between atoms: _138  and  _140
REMARK   59  A    between atoms: _140  and  _141
REMARK   60  A    between atoms: _140  and  _143
REMARK   61  A    between atoms: _143  and  _144
REMARK   62  A    between atoms: _144  and  _145
REMARK   63  A    between atoms: _147  and  _149
REMARK   64  A    between atoms: _149  and  _150
REMARK   65  A    between atoms: _149  and  _152
REMARK   66  A    between atoms: _152  and  _153
REMARK   67  A    between atoms: _156  and  _158
REMARK   68  A    between atoms: _158  and  _159
REMARK   69  A    between atoms: _161  and  _163
REMARK   70  A    between atoms: _163  and  _164
REMARK   71  A    between atoms: _166  and  _168
REMARK   72  A    between atoms: _168  and  _169
REMARK   73  A    between atoms: _168  and  _171
REMARK   74  A    between atoms: _171  and  _172
REMARK   75  A    between atoms: _175  and  _177
REMARK   76  A    between atoms: _177  and  _178
REMARK   77  A    between atoms: _180  and  _182
REMARK   78  A    between atoms: _182  and  _183
REMARK   79  A    between atoms: _185  and  _187
REMARK   80  A    between atoms: _187  and  _188
REMARK   81  A    between atoms: _187  and  _190
REMARK   82  A    between atoms: _190  and  _191
REMARK   83  A    between atoms: _197  and  _199
REMARK   84  A    between atoms: _199  and  _200
REMARK   85  A    between atoms: _199  and  _202
REMARK   86  A    between atoms: _202  and  _203
REMARK   87  A    between atoms: _206  and  _208
REMARK   88  A    between atoms: _208  and  _209
REMARK   89  A    between atoms: _208  and  _211
REMARK   90  A    between atoms: _214  and  _216
REMARK   91  A    between atoms: _216  and  _217
REMARK   92  A    between atoms: _216  and  _219
REMARK   93  A    between atoms: _219  and  _220
REMARK   94  A    between atoms: _224  and  _225
REMARK   95  A    between atoms: _230  and  _232
REMARK   96  A    between atoms: _232  and  _233
REMARK   97  A    between atoms: _232  and  _235
REMARK   98  A    between atoms: _235  and  _236
REMARK   99  A    between atoms: _240  and  _241
REMARK  100  A    between atoms: _246  and  _248
REMARK  101  A    between atoms: _248  and  _249
REMARK  102  A    between atoms: _252  and  _254
REMARK  103  A    between atoms: _254  and  _255
REMARK  104  A    between atoms: _254  and  _257
REMARK  105  A    between atoms: _257  and  _258
REMARK  106  A    between atoms: _263  and  _265
REMARK  107  A    between atoms: _265  and  _266
REMARK  108  A    between atoms: _265  and  _268
REMARK  109  A    between atoms: _268  and  _269
REMARK  110  A    between atoms: _272  and  _274
REMARK  111  A    between atoms: _274  and  _275
REMARK  112  A    between atoms: _274  and  _277
REMARK  113  A    between atoms: _277  and  _278
REMARK  114  A    between atoms: _281  and  _283
REMARK  115  A    between atoms: _283  and  _284
REMARK  116  A    between atoms: _286  and  _288
REMARK  117  A    between atoms: _288  and  _289
REMARK  118  A    between atoms: _288  and  _291
REMARK  119  A    between atoms: _291  and  _292
REMARK  120  A    between atoms: _292  and  _293
REMARK  121  A    between atoms: _293  and  _294
REMARK  122  A    between atoms: _303  and  _305
REMARK  123  A    between atoms: _305  and  _306
REMARK  124  A    between atoms: _305  and  _308
REMARK  125  A    between atoms: _308  and  _309
REMARK  126  A    between atoms: _309  and  _310
REMARK  127  A    between atoms: _310  and  _311
REMARK  128  A    between atoms: _321  and  _322
REMARK  129  A    between atoms: _327  and  _329
REMARK  130  A    between atoms: _329  and  _330
REMARK  131  A    between atoms: _329  and  _332
REMARK  132  A    between atoms: _332  and  _333
REMARK  133  A    between atoms: _336  and  _338
REMARK  134  A    between atoms: _338  and  _339
REMARK  135  A    between atoms: _338  and  _341
REMARK  136  A    between atoms: _341  and  _342
REMARK  137  A    between atoms: _345  and  _347
REMARK  138  A    between atoms: _347  and  _348
REMARK  139  A    between atoms: _347  and  _350
REMARK  140  A    between atoms: _350  and  _351
REMARK  141  A    between atoms: _354  and  _356
REMARK  142  A    between atoms: _356  and  _357
REMARK  143  A    between atoms: _356  and  _359
REMARK  144  A    between atoms: _359  and  _360
REMARK  145  A    between atoms: _363  and  _365
REMARK  146  A    between atoms: _365  and  _366
REMARK  147  A    between atoms: _365  and  _368
REMARK  148  A    between atoms: _368  and  _369
REMARK  149  A    between atoms: _372  and  _374
REMARK  150  A    between atoms: _374  and  _375
REMARK  151  A    between atoms: _377  and  _379
REMARK  152  A    between atoms: _379  and  _380
REMARK  153  A    between atoms: _383  and  _385
REMARK  154  A    between atoms: _385  and  _386
REMARK  155  A    between atoms: _385  and  _388
REMARK  156  A    between atoms: _388  and  _389
REMARK  157  A    between atoms: _392  and  _394
REMARK  158  A    between atoms: _394  and  _395
REMARK  159  A    between atoms: _394  and  _397
REMARK  160  A    between atoms: _397  and  _398
REMARK  161  A    between atoms: _401  and  _403
REMARK  162  A    between atoms: _403  and  _404
REMARK  163  A    between atoms: _403  and  _406
REMARK  164  A    between atoms: _406  and  _407
REMARK  165  A    between atoms: _410  and  _412
REMARK  166  A    between atoms: _412  and  _413
REMARK  167  A    between atoms: _412  and  _415
REMARK  168  A    between atoms: _418  and  _420
REMARK  169  A    between atoms: _420  and  _421
REMARK  170  A    between atoms: _420  and  _423
REMARK  171  A    between atoms: _423  and  _424
REMARK  172  A    between atoms: _427  and  _429
REMARK  173  A    between atoms: _429  and  _430
REMARK  174  A    between atoms: _429  and  _432
REMARK  175  A    between atoms: _432  and  _433
REMARK  176  A    between atoms: _433  and  _434
REMARK  177  A    between atoms: _434  and  _435
REMARK  178  A    between atoms: _435  and  _436
REMARK  179  A    between atoms: _440  and  _442
REMARK  180  A    between atoms: _442  and  _443
REMARK  181  A    between atoms: _442  and  _445
REMARK  182  A    between atoms: _445  and  _446
REMARK  183  A    between atoms: _446  and  _447
REMARK  184  A    between atoms: _449  and  _451
REMARK  185  A    between atoms: _451  and  _452
REMARK  186  A    between atoms: _451  and  _454
REMARK  187  A    between atoms: _454  and  _455
REMARK  188  A    between atoms: _458  and  _460
REMARK  189  A    between atoms: _460  and  _461
REMARK  190  A    between atoms: _463  and  _465
REMARK  191  A    between atoms: _465  and  _466
REMARK  192  A    between atoms: _468  and  _470
REMARK  193  A    between atoms: _470  and  _471
REMARK  194  A    between atoms: _470  and  _473
REMARK  195  A    between atoms: _473  and  _474
REMARK  196  A    between atoms: _477  and  _479
REMARK  197  A    between atoms: _479  and  _480
REMARK  198  A    between atoms: _482  and  _484
REMARK  199  A    between atoms: _484  and  _485
REMARK  200  A    between atoms: _487  and  _489
REMARK  201  A    between atoms: _489  and  _490
REMARK  202  A    between atoms: _489  and  _492
REMARK  203  A    between atoms: _492  and  _493
REMARK  204  A    between atoms: _496  and  _498
REMARK  205  A    between atoms: _498  and  _499
REMARK  206  A    between atoms: _498  and  _501
REMARK  207  A    between atoms: _504  and  _506
REMARK  208  A    between atoms: _506  and  _507
REMARK  209  A    between atoms: _506  and  _509
REMARK  210  A    between atoms: _509  and  _510
REMARK  211  A    between atoms: _514  and  _515
REMARK  212  A    between atoms: _520  and  _522
REMARK  213  A    between atoms: _522  and  _523
REMARK  214  A    between atoms: _522  and  _525
REMARK  215  A    between atoms: _525  and  _526
REMARK  216  A    between atoms: _530  and  _531
REMARK  217  A    between atoms: _536  and  _538
REMARK  218  A    between atoms: _538  and  _539
REMARK  219  A    between atoms: _542  and  _544
REMARK  220  A    between atoms: _544  and  _545
REMARK  221  A    between atoms: _544  and  _547
REMARK  222  A    between atoms: _547  and  _548
REMARK  223  A    between atoms: _553  and  _555
REMARK  224  A    between atoms: _555  and  _556
REMARK  225  A    between atoms: _555  and  _558
REMARK  226  A    between atoms: _558  and  _559
REMARK  227  A    between atoms: _562  and  _564
REMARK  228  A    between atoms: _564  and  _565
REMARK  229  A    between atoms: _564  and  _567
REMARK  230  A    between atoms: _567  and  _568
REMARK  231  A    between atoms: _571  and  _573
REMARK  232  A    between atoms: _573  and  _574
REMARK  233  A    between atoms: _576  and  _578
REMARK  234  A    between atoms: _578  and  _579
REMARK  235  A    between atoms: _578  and  _581
REMARK  236  A    between atoms: _581  and  _582
REMARK  237  A    between atoms: _582  and  _583
REMARK  238  A    between atoms: _583  and  _584
REMARK                            x       y       z     vdW  Elec       q    Type
REMARK                         _______ _______ _______ _____ _____    ______ ____
ROOT
ATOM      1  C   ASN A   5      28.049 -31.312  18.543  0.00  0.00    +0.241 C 
ATOM      2  N   ILE A   6      27.160 -31.940  19.303  0.00  0.00    -0.297 N 
ATOM      3  H   ILE A   6      27.502 -32.527  20.091  0.00  0.00    +0.150 HD
ATOM      4  O   ASN A   5      27.740 -30.576  17.608  0.00  0.00    -0.273 OA
ENDROOT
BRANCH   1   5
ATOM      5  CA  ASN A   5      29.509 -31.551  18.896  0.00  0.00    +0.158 C 
BRANCH   5   8
ATOM      6  C   ALA A   4      29.989 -33.273  17.247  0.00  0.00    +0.241 C 
ATOM      7  O   ALA A   4      29.245 -34.084  17.799  0.00  0.00    -0.273 OA
ATOM      8  N   ASN A   5      30.190 -32.038  17.704  0.00  0.00    -0.297 N 
ATOM      9  H   ASN A   5      30.847 -31.409  17.199  0.00  0.00    +0.150 HD
BRANCH   6  10
ATOM     10  CA  ALA A   4      30.741 -33.651  15.981  0.00  0.00    +0.149 C 
ATOM     11  CB  ALA A   4      29.978 -33.150  14.765  0.00  0.00    +0.031 C 
BRANCH  10  13
ATOM     12  C   PRO A   3      31.928 -35.581  15.112  0.00  0.00    +0.241 C 
ATOM     13  N   ALA A   4      30.953 -35.092  15.874  0.00  0.00    -0.297 N 
ATOM     14  H   ALA A   4      30.335 -35.743  16.399  0.00  0.00    +0.150 HD
ATOM     15  O   PRO A   3      32.689 -34.858  14.472  0.00  0.00    -0.273 OA
BRANCH  12  22
ATOM     16  C   THR A   2      31.777 -37.691  17.417  0.00  0.00    +0.246 C 
ATOM     17  O   THR A   2      32.775 -37.053  17.725  0.00  0.00    -0.273 OA
ATOM     18  N   PRO A   3      31.355 -37.782  16.145  0.00  0.00    -0.272 N 
ATOM     19  CD  PRO A   3      30.351 -38.716  15.609  0.00  0.00    +0.094 C 
ATOM     20  CG  PRO A   3      30.918 -39.030  14.254  0.00  0.00    +0.024 C 
ATOM     21  CB  PRO A   3      31.413 -37.686  13.800  0.00  0.00    +0.031 C 
ATOM     22  CA  PRO A   3      32.068 -37.107  15.054  0.00  0.00    +0.152 C 
BRANCH  16  23
ATOM     23  CA  THR A   2      30.973 -38.421  18.485  0.00  0.00    +0.176 C 
BRANCH  23  25
ATOM     24  C   PRO A   1      32.562 -40.081  19.255  0.00  0.00    +0.239 C 
ATOM     25  N   THR A   2      31.916 -38.938  19.468  0.00  0.00    -0.295 N 
ATOM     26  H   THR A   2      32.086 -38.407  20.346  0.00  0.00    +0.150 HD
ATOM     27  O   PRO A   1      32.371 -40.767  18.253  0.00  0.00    -0.274 OA
BRANCH  24  32
ATOM     28  N   PRO A   1      33.115 -40.460  21.711  0.00  0.00    -0.210 NA
ATOM     29  CD  PRO A   1      32.958 -41.816  22.270  0.00  0.00    +0.089 C 
ATOM     30  CG  PRO A   1      32.970 -42.683  21.023  0.00  0.00    +0.021 C 
ATOM     31  CB  PRO A   1      33.967 -41.989  20.165  0.00  0.00    +0.028 C 
ATOM     32  CA  PRO A   1      33.567 -40.525  20.320  0.00  0.00    +0.149 C 
ENDBRANCH  24  32
ENDBRANCH  23  25
BRANCH  23  33
ATOM     33  CB  THR A   2      29.985 -37.415  19.100  0.00  0.00    +0.137 C 
ATOM     34  CG2 THR A   2      30.737 -36.281  19.782  0.00  0.00    +0.034 C 
BRANCH  33  35
ATOM     35  OG1 THR A   2      29.162 -36.865  18.062  0.00  0.00    -0.382 OA
ATOM     36  HG1 THR A   2      28.525 -36.217  18.456  0.00  0.00    +0.210 HD
ENDBRANCH  33  35
ENDBRANCH  23  33
ENDBRANCH  16  23
ENDBRANCH  12  22
ENDBRANCH  10  13
ENDBRANCH   6  10
ENDBRANCH   5   8
BRANCH   5  37
ATOM     37  CB  ASN A   5      30.149 -30.256  19.399  0.00  0.00    +0.114 C 
BRANCH  37  38
ATOM     38  CG  ASN A   5      31.612 -30.434  19.766  0.00  0.00    +0.222 C 
ATOM     39  OD1 ASN A   5      31.982 -31.384  20.463  0.00  0.00    -0.275 OA
ATOM     40  ND2 ASN A   5      32.451 -29.514  19.306  0.00  0.00    -0.329 N 
ATOM     41 HD21 ASN A   5      33.465 -29.576  19.530  0.00  0.00    +0.145 HD
ATOM     42 HD22 ASN A   5      32.095 -28.731  18.722  0.00  0.00    +0.145 HD
ENDBRANCH  37  38
ENDBRANCH   5  37
ENDBRANCH   1   5
BRANCH   2  43
ATOM     43  CA  ILE A   6      25.718 -31.840  19.077  0.00  0.00    +0.149 C 
BRANCH  43  44
ATOM     44  C   ILE A   6      24.956 -31.248  20.262  0.00  0.00    +0.241 C 
ATOM     45  O   ILE A   6      25.079 -31.734  21.383  0.00  0.00    -0.273 OA
ATOM     46  N   ILE A   7      24.164 -30.208  20.016  0.00  0.00    -0.297 N 
ATOM     47  H   ILE A   7      24.128 -29.807  19.057  0.00  0.00    +0.150 HD
BRANCH  46  48
ATOM     48  CA  ILE A   7      23.342 -29.619  21.077  0.00  0.00    +0.149 C 
BRANCH  48  49
ATOM     49  C   ILE A   7      21.945 -30.172  20.816  0.00  0.00    +0.241 C 
ATOM     50  N   GLY A   8      21.493 -31.075  21.687  0.00  0.00    -0.295 N 
ATOM     51  H   GLY A   8      22.088 -31.346  22.496  0.00  0.00    +0.150 HD
ATOM     52  O   ILE A   7      21.302 -29.795  19.829  0.00  0.00    -0.273 OA
BRANCH  50  53
ATOM     53  CA  GLY A   8      20.184 -31.689  21.529  0.00  0.00    +0.176 C 
BRANCH  53  54
ATOM     54  C   GLY A   8      19.040 -30.952  22.204  0.00  0.00    +0.243 C 
ATOM     55  O   GLY A   8      19.241 -29.931  22.862  0.00  0.00    -0.273 OA
ATOM     56  N   ARG A   9      17.831 -31.490  22.060  0.00  0.00    -0.298 N 
ATOM     57  H   ARG A   9      17.734 -32.383  21.535  0.00  0.00    +0.150 HD
BRANCH  56  58
ATOM     58  CA  ARG A   9      16.636 -30.862  22.618  0.00  0.00    +0.137 C 
BRANCH  58  59
ATOM     59  C   ARG A   9      16.649 -30.606  24.122  0.00  0.00    +0.227 C 
ATOM     60  O   ARG A   9      15.995 -29.672  24.592  0.00  0.00    -0.286 OA
ENDBRANCH  58  59
BRANCH  58  61
ATOM     61  CB  ARG A   9      15.387 -31.677  22.245  0.00  0.00    +0.031 C 
BRANCH  61  62
ATOM     62  CG  ARG A   9      15.070 -31.679  20.743  0.00  0.00    +0.045 C 
BRANCH  62  63
ATOM     63  CD  ARG A   9      13.718 -32.351  20.427  0.00  0.00    +0.174 C 
BRANCH  63  64
ATOM     64  NE  ARG A   9      13.652 -33.730  20.912  0.00  0.00    -0.265 N 
ATOM     65  CZ  ARG A   9      13.107 -34.096  22.068  0.00  0.00    +0.342 C 
ATOM     66  NH2 ARG A   9      12.560 -33.192  22.871  0.00  0.00    -0.292 N 
ATOM     67 HH21 ARG A   9      12.136 -33.487  23.774  0.00  0.00    +0.255 HD
ATOM     68 HH22 ARG A   9      12.556 -32.189  22.598  0.00  0.00    +0.255 HD
ATOM     69  NH1 ARG A   9      13.132 -35.368  22.436  0.00  0.00    -0.292 N 
ATOM     70 HH11 ARG A   9      12.706 -35.656  23.340  0.00  0.00    +0.255 HD
ATOM     71 HH12 ARG A   9      13.577 -36.079  21.821  0.00  0.00    +0.255 HD
ATOM     72  HE  ARG A   9      14.059 -34.475  20.311  0.00  0.00    +0.259 HD
ENDBRANCH  63  64
ENDBRANCH  62  63
ENDBRANCH  61  62
ENDBRANCH  58  61
ENDBRANCH  56  58
ENDBRANCH  53  54
ENDBRANCH  50  53
ENDBRANCH  48  49
BRANCH  48  73
ATOM     73  CB  ILE A   7      23.284 -28.076  21.000  0.00  0.00    +0.027 C 
ATOM     74  CG2 ILE A   7      22.437 -27.526  22.158  0.00  0.00    +0.002 C 
BRANCH  73  75
ATOM     75  CG1 ILE A   7      24.701 -27.497  21.042  0.00  0.00    +0.002 C 
ATOM     76  CD1 ILE A   7      25.507 -27.927  22.254  0.00  0.00    +0.000 C 
ENDBRANCH  73  75
ENDBRANCH  48  73
ENDBRANCH  46  48
ENDBRANCH  43  44
BRANCH  43  77
ATOM     77  CB  ILE A   6      25.126 -33.250  18.808  0.00  0.00    +0.027 C 
ATOM     78  CG2 ILE A   6      23.598 -33.185  18.746  0.00  0.00    +0.002 C 
BRANCH  77  79
ATOM     79  CG1 ILE A   6      25.722 -33.820  17.524  0.00  0.00    +0.002 C 
ATOM     80  CD1 ILE A   6      25.586 -35.311  17.412  0.00  0.00    +0.000 C 
ENDBRANCH  77  79
ENDBRANCH  43  77
ENDBRANCH   2  43
TORSDOF 28
REMARK  Name = ../refined-set-2016/2fle/2fle_pocket.pdb
REMARK  238 active torsions:
REMARK  status: ('A' for Active; 'I' for Inactive)
REMARK    1  A    between atoms: _1  and  _3
REMARK    2  A    between atoms: _3  and  _4
REMARK    3  A    between atoms: _3  and  _6
REMARK    4  A    between atoms: _6  and  _7
REMARK    5  A    between atoms: _7  and  _8
REMARK    6  A    between atoms: _8  and  _9
REMARK    7  A    between atoms: _19  and  _20
REMARK    8  A    between atoms: _25  and  _27
REMARK    9  A    between atoms: _27  and  _28
REMARK   10  A    between atoms: _27  and  _30
REMARK   11  A    between atoms: _30  and  _31
REMARK   12  A    between atoms: _34  and  _36
REMARK   13  A    between atoms: _36  and  _37
REMARK   14  A    between atoms: _36  and  _39
REMARK   15  A    between atoms: _39  and  _40
REMARK   16  A    between atoms: _43  and  _45
REMARK   17  A    between atoms: _45  and  _46
REMARK   18  A    between atoms: _45  and  _48
REMARK   19  A    between atoms: _48  and  _49
REMARK   20  A    between atoms: _52  and  _54
REMARK   21  A    between atoms: _54  and  _55
REMARK   22  A    between atoms: _54  and  _57
REMARK   23  A    between atoms: _57  and  _58
REMARK   24  A    between atoms: _61  and  _63
REMARK   25  A    between atoms: _63  and  _64
REMARK   26  A    between atoms: _63  and  _66
REMARK   27  A    between atoms: _66  and  _67
REMARK   28  A    between atoms: _70  and  _72
REMARK   29  A    between atoms: _72  and  _73
REMARK   30  A    between atoms: _75  and  _77
REMARK   31  A    between atoms: _77  and  _78
REMARK   32  A    between atoms: _81  and  _83
REMARK   33  A    between atoms: _83  and  _84
REMARK   34  A    between atoms: _83  and  _86
REMARK   35  A    between atoms: _86  and  _87
REMARK   36  A    between atoms: _90  and  _92
REMARK   37  A    between atoms: _92  and  _93
REMARK   38  A    between atoms: _92  and  _95
REMARK   39  A    between atoms: _95  and  _96
REMARK   40  A    between atoms: _99  and  _101
REMARK   41  A    between atoms: _101  and  _102
REMARK   42  A    between atoms: _101  and  _104
REMARK   43  A    between atoms: _104  and  _105
REMARK   44  A    between atoms: _108  and  _110
REMARK   45  A    between atoms: _110  and  _111
REMARK   46  A    between atoms: _110  and  _113
REMARK   47  A    between atoms: _116  and  _118
REMARK   48  A    between atoms: _118  and  _119
REMARK   49  A    between atoms: _118  and  _121
REMARK   50  A    between atoms: _121  and  _122
REMARK   51  A    between atoms: _125  and  _127
REMARK   52  A    between atoms: _127  and  _128
REMARK   53  A    between atoms: _127  and  _130
REMARK   54  A    between atoms: _130  and  _131
REMARK   55  A    between atoms: _131  and  _132
REMARK   56  A    between atoms: _132  and  _133
REMARK   57  A    between atoms: _133  and  _134
REMARK   58  A    between atoms: _138  and  _140
REMARK   59  A    between atoms: _140  and  _141
REMARK   60  A    between atoms: _140  and  _143
REMARK   61  A    between atoms: _143  and  _144
REMARK   62  A    between atoms: _144  and  _145
REMARK   63  A    between atoms: _147  and  _149
REMARK   64  A    between atoms: _149  and  _150
REMARK   65  A    between atoms: _149  and  _152
REMARK   66  A    between atoms: _152  and  _153
REMARK   67  A    between atoms: _156  and  _158
REMARK   68  A    between atoms: _158  and  _159
REMARK   69  A    between atoms: _161  and  _163
REMARK   70  A    between atoms: _163  and  _164
REMARK   71  A    between atoms: _166  and  _168
REMARK   72  A    between atoms: _168  and  _169
REMARK   73  A    between atoms: _168  and  _171
REMARK   74  A    between atoms: _171  and  _172
REMARK   75  A    between atoms: _175  and  _177
REMARK   76  A    between atoms: _177  and  _178
REMARK   77  A    between atoms: _180  and  _182
REMARK   78  A    between atoms: _182  and  _183
REMARK   79  A    between atoms: _185  and  _187
REMARK   80  A    between atoms: _187  and  _188
REMARK   81  A    between atoms: _187  and  _190
REMARK   82  A    between atoms: _190  and  _191
REMARK   83  A    between atoms: _197  and  _199
REMARK   84  A    between atoms: _199  and  _200
REMARK   85  A    between atoms: _199  and  _202
REMARK   86  A    between atoms: _202  and  _203
REMARK   87  A    between atoms: _206  and  _208
REMARK   88  A    between atoms: _208  and  _209
REMARK   89  A    between atoms: _208  and  _211
REMARK   90  A    between atoms: _214  and  _216
REMARK   91  A    between atoms: _216  and  _217
REMARK   92  A    between atoms: _216  and  _219
REMARK   93  A    between atoms: _219  and  _220
REMARK   94  A    between atoms: _224  and  _225
REMARK   95  A    between atoms: _230  and  _232
REMARK   96  A    between atoms: _232  and  _233
REMARK   97  A    between atoms: _232  and  _235
REMARK   98  A    between atoms: _235  and  _236
REMARK   99  A    between atoms: _240  and  _241
REMARK  100  A    between atoms: _246  and  _248
REMARK  101  A    between atoms: _248  and  _249
REMARK  102  A    between atoms: _252  and  _254
REMARK  103  A    between atoms: _254  and  _255
REMARK  104  A    between atoms: _254  and  _257
REMARK  105  A    between atoms: _257  and  _258
REMARK  106  A    between atoms: _263  and  _265
REMARK  107  A    between atoms: _265  and  _266
REMARK  108  A    between atoms: _265  and  _268
REMARK  109  A    between atoms: _268  and  _269
REMARK  110  A    between atoms: _272  and  _274
REMARK  111  A    between atoms: _274  and  _275
REMARK  112  A    between atoms: _274  and  _277
REMARK  113  A    between atoms: _277  and  _278
REMARK  114  A    between atoms: _281  and  _283
REMARK  115  A    between atoms: _283  and  _284
REMARK  116  A    between atoms: _286  and  _288
REMARK  117  A    between atoms: _288  and  _289
REMARK  118  A    between atoms: _288  and  _291
REMARK  119  A    between atoms: _291  and  _292
REMARK  120  A    between atoms: _292  and  _293
REMARK  121  A    between atoms: _293  and  _294
REMARK  122  A    between atoms: _303  and  _305
REMARK  123  A    between atoms: _305  and  _306
REMARK  124  A    between atoms: _305  and  _308
REMARK  125  A    between atoms: _308  and  _309
REMARK  126  A    between atoms: _309  and  _310
REMARK  127  A    between atoms: _310  and  _311
REMARK  128  A    between atoms: _321  and  _322
REMARK  129  A    between atoms: _327  and  _329
REMARK  130  A    between atoms: _329  and  _330
REMARK  131  A    between atoms: _329  and  _332
REMARK  132  A    between atoms: _332  and  _333
REMARK  133  A    between atoms: _336  and  _338
REMARK  134  A    between atoms: _338  and  _339
REMARK  135  A    between atoms: _338  and  _341
REMARK  136  A    between atoms: _341  and  _342
REMARK  137  A    between atoms: _345  and  _347
REMARK  138  A    between atoms: _347  and  _348
REMARK  139  A    between atoms: _347  and  _350
REMARK  140  A    between atoms: _350  and  _351
REMARK  141  A    between atoms: _354  and  _356
REMARK  142  A    between atoms: _356  and  _357
REMARK  143  A    between atoms: _356  and  _359
REMARK  144  A    between atoms: _359  and  _360
REMARK  145  A    between atoms: _363  and  _365
REMARK  146  A    between atoms: _365  and  _366
REMARK  147  A    between atoms: _365  and  _368
REMARK  148  A    between atoms: _368  and  _369
REMARK  149  A    between atoms: _372  and  _374
REMARK  150  A    between atoms: _374  and  _375
REMARK  151  A    between atoms: _377  and  _379
REMARK  152  A    between atoms: _379  and  _380
REMARK  153  A    between atoms: _383  and  _385
REMARK  154  A    between atoms: _385  and  _386
REMARK  155  A    between atoms: _385  and  _388
REMARK  156  A    between atoms: _388  and  _389
REMARK  157  A    between atoms: _392  and  _394
REMARK  158  A    between atoms: _394  and  _395
REMARK  159  A    between atoms: _394  and  _397
REMARK  160  A    between atoms: _397  and  _398
REMARK  161  A    between atoms: _401  and  _403
REMARK  162  A    between atoms: _403  and  _404
REMARK  163  A    between atoms: _403  and  _406
REMARK  164  A    between atoms: _406  and  _407
REMARK  165  A    between atoms: _410  and  _412
REMARK  166  A    between atoms: _412  and  _413
REMARK  167  A    between atoms: _412  and  _415
REMARK  168  A    between atoms: _418  and  _420
REMARK  169  A    between atoms: _420  and  _421
REMARK  170  A    between atoms: _420  and  _423
REMARK  171  A    between atoms: _423  and  _424
REMARK  172  A    between atoms: _427  and  _429
REMARK  173  A    between atoms: _429  and  _430
REMARK  174  A    between atoms: _429  and  _432
REMARK  175  A    between atoms: _432  and  _433
REMARK  176  A    between atoms: _433  and  _434
REMARK  177  A    between atoms: _434  and  _435
REMARK  178  A    between atoms: _435  and  _436
REMARK  179  A    between atoms: _440  and  _442
REMARK  180  A    between atoms: _442  and  _443
REMARK  181  A    between atoms: _442  and  _445
REMARK  182  A    between atoms: _445  and  _446
REMARK  183  A    between atoms: _446  and  _447
REMARK  184  A    between atoms: _449  and  _451
REMARK  185  A    between atoms: _451  and  _452
REMARK  186  A    between atoms: _451  and  _454
REMARK  187  A    between atoms: _454  and  _455
REMARK  188  A    between atoms: _458  and  _460
REMARK  189  A    between atoms: _460  and  _461
REMARK  190  A    between atoms: _463  and  _465
REMARK  191  A    between atoms: _465  and  _466
REMARK  192  A    between atoms: _468  and  _470
REMARK  193  A    between atoms: _470  and  _471
REMARK  194  A    between atoms: _470  and  _473
REMARK  195  A    between atoms: _473  and  _474
REMARK  196  A    between atoms: _477  and  _479
REMARK  197  A    between atoms: _479  and  _480
REMARK  198  A    between atoms: _482  and  _484
REMARK  199  A    between atoms: _484  and  _485
REMARK  200  A    between atoms: _487  and  _489
REMARK  201  A    between atoms: _489  and  _490
REMARK  202  A    between atoms: _489  and  _492
REMARK  203  A    between atoms: _492  and  _493
REMARK  204  A    between atoms: _496  and  _498
REMARK  205  A    between atoms: _498  and  _499
REMARK  206  A    between atoms: _498  and  _501
REMARK  207  A    between atoms: _504  and  _506
REMARK  208  A    between atoms: _506  and  _507
REMARK  209  A    between atoms: _506  and  _509
REMARK  210  A    between atoms: _509  and  _510
REMARK  211  A    between atoms: _514  and  _515
REMARK  212  A    between atoms: _520  and  _522
REMARK  213  A    between atoms: _522  and  _523
REMARK  214  A    between atoms: _522  and  _525
REMARK  215  A    between atoms: _525  and  _526
REMARK  216  A    between atoms: _530  and  _531
REMARK  217  A    between atoms: _536  and  _538
REMARK  218  A    between atoms: _538  and  _539
REMARK  219  A    between atoms: _542  and  _544
REMARK  220  A    between atoms: _544  and  _545
REMARK  221  A    between atoms: _544  and  _547
REMARK  222  A    between atoms: _547  and  _548
REMARK  223  A    between atoms: _553  and  _555
REMARK  224  A    between atoms: _555  and  _556
REMARK  225  A    between atoms: _555  and  _558
REMARK  226  A    between atoms: _558  and  _559
REMARK  227  A    between atoms: _562  and  _564
REMARK  228  A    between atoms: _564  and  _565
REMARK  229  A    between atoms: _564  and  _567
REMARK  230  A    between atoms: _567  and  _568
REMARK  231  A    between atoms: _571  and  _573
REMARK  232  A    between atoms: _573  and  _574
REMARK  233  A    between atoms: _576  and  _578
REMARK  234  A    between atoms: _578  and  _579
REMARK  235  A    between atoms: _578  and  _581
REMARK  236  A    between atoms: _581  and  _582
REMARK  237  A    between atoms: _582  and  _583
REMARK  238  A    between atoms: _583  and  _584
REMARK                            x       y       z     vdW  Elec       q    Type
REMARK                         _______ _______ _______ _____ _____    ______ ____
ROOT
ATOM      1  O   HOH     1       8.788 -36.774  22.026  0.00  0.00    +0.000 OA
ENDROOT
TORSDOF 0
REMARK  Name = ../refined-set-2016/2fle/2fle_pocket.pdb
REMARK  238 active torsions:
REMARK  status: ('A' for Active; 'I' for Inactive)
REMARK    1  A    between atoms: _1  and  _3
REMARK    2  A    between atoms: _3  and  _4
REMARK    3  A    between atoms: _3  and  _6
REMARK    4  A    between atoms: _6  and  _7
REMARK    5  A    between atoms: _7  and  _8
REMARK    6  A    between atoms: _8  and  _9
REMARK    7  A    between atoms: _19  and  _20
REMARK    8  A    between atoms: _25  and  _27
REMARK    9  A    between atoms: _27  and  _28
REMARK   10  A    between atoms: _27  and  _30
REMARK   11  A    between atoms: _30  and  _31
REMARK   12  A    between atoms: _34  and  _36
REMARK   13  A    between atoms: _36  and  _37
REMARK   14  A    between atoms: _36  and  _39
REMARK   15  A    between atoms: _39  and  _40
REMARK   16  A    between atoms: _43  and  _45
REMARK   17  A    between atoms: _45  and  _46
REMARK   18  A    between atoms: _45  and  _48
REMARK   19  A    between atoms: _48  and  _49
REMARK   20  A    between atoms: _52  and  _54
REMARK   21  A    between atoms: _54  and  _55
REMARK   22  A    between atoms: _54  and  _57
REMARK   23  A    between atoms: _57  and  _58
REMARK   24  A    between atoms: _61  and  _63
REMARK   25  A    between atoms: _63  and  _64
REMARK   26  A    between atoms: _63  and  _66
REMARK   27  A    between atoms: _66  and  _67
REMARK   28  A    between atoms: _70  and  _72
REMARK   29  A    between atoms: _72  and  _73
REMARK   30  A    between atoms: _75  and  _77
REMARK   31  A    between atoms: _77  and  _78
REMARK   32  A    between atoms: _81  and  _83
REMARK   33  A    between atoms: _83  and  _84
REMARK   34  A    between atoms: _83  and  _86
REMARK   35  A    between atoms: _86  and  _87
REMARK   36  A    between atoms: _90  and  _92
REMARK   37  A    between atoms: _92  and  _93
REMARK   38  A    between atoms: _92  and  _95
REMARK   39  A    between atoms: _95  and  _96
REMARK   40  A    between atoms: _99  and  _101
REMARK   41  A    between atoms: _101  and  _102
REMARK   42  A    between atoms: _101  and  _104
REMARK   43  A    between atoms: _104  and  _105
REMARK   44  A    between atoms: _108  and  _110
REMARK   45  A    between atoms: _110  and  _111
REMARK   46  A    between atoms: _110  and  _113
REMARK   47  A    between atoms: _116  and  _118
REMARK   48  A    between atoms: _118  and  _119
REMARK   49  A    between atoms: _118  and  _121
REMARK   50  A    between atoms: _121  and  _122
REMARK   51  A    between atoms: _125  and  _127
REMARK   52  A    between atoms: _127  and  _128
REMARK   53  A    between atoms: _127  and  _130
REMARK   54  A    between atoms: _130  and  _131
REMARK   55  A    between atoms: _131  and  _132
REMARK   56  A    between atoms: _132  and  _133
REMARK   57  A    between atoms: _133  and  _134
REMARK   58  A    between atoms: _138  and  _140
REMARK   59  A    between atoms: _140  and  _141
REMARK   60  A    between atoms: _140  and  _143
REMARK   61  A    between atoms: _143  and  _144
REMARK   62  A    between atoms: _144  and  _145
REMARK   63  A    between atoms: _147  and  _149
REMARK   64  A    between atoms: _149  and  _150
REMARK   65  A    between atoms: _149  and  _152
REMARK   66  A    between atoms: _152  and  _153
REMARK   67  A    between atoms: _156  and  _158
REMARK   68  A    between atoms: _158  and  _159
REMARK   69  A    between atoms: _161  and  _163
REMARK   70  A    between atoms: _163  and  _164
REMARK   71  A    between atoms: _166  and  _168
REMARK   72  A    between atoms: _168  and  _169
REMARK   73  A    between atoms: _168  and  _171
REMARK   74  A    between atoms: _171  and  _172
REMARK   75  A    between atoms: _175  and  _177
REMARK   76  A    between atoms: _177  and  _178
REMARK   77  A    between atoms: _180  and  _182
REMARK   78  A    between atoms: _182  and  _183
REMARK   79  A    between atoms: _185  and  _187
REMARK   80  A    between atoms: _187  and  _188
REMARK   81  A    between atoms: _187  and  _190
REMARK   82  A    between atoms: _190  and  _191
REMARK   83  A    between atoms: _197  and  _199
REMARK   84  A    between atoms: _199  and  _200
REMARK   85  A    between atoms: _199  and  _202
REMARK   86  A    between atoms: _202  and  _203
REMARK   87  A    between atoms: _206  and  _208
REMARK   88  A    between atoms: _208  and  _209
REMARK   89  A    between atoms: _208  and  _211
REMARK   90  A    between atoms: _214  and  _216
REMARK   91  A    between atoms: _216  and  _217
REMARK   92  A    between atoms: _216  and  _219
REMARK   93  A    between atoms: _219  and  _220
REMARK   94  A    between atoms: _224  and  _225
REMARK   95  A    between atoms: _230  and  _232
REMARK   96  A    between atoms: _232  and  _233
REMARK   97  A    between atoms: _232  and  _235
REMARK   98  A    between atoms: _235  and  _236
REMARK   99  A    between atoms: _240  and  _241
REMARK  100  A    between atoms: _246  and  _248
REMARK  101  A    between atoms: _248  and  _249
REMARK  102  A    between atoms: _252  and  _254
REMARK  103  A    between atoms: _254  and  _255
REMARK  104  A    between atoms: _254  and  _257
REMARK  105  A    between atoms: _257  and  _258
REMARK  106  A    between atoms: _263  and  _265
REMARK  107  A    between atoms: _265  and  _266
REMARK  108  A    between atoms: _265  and  _268
REMARK  109  A    between atoms: _268  and  _269
REMARK  110  A    between atoms: _272  and  _274
REMARK  111  A    between atoms: _274  and  _275
REMARK  112  A    between atoms: _274  and  _277
REMARK  113  A    between atoms: _277  and  _278
REMARK  114  A    between atoms: _281  and  _283
REMARK  115  A    between atoms: _283  and  _284
REMARK  116  A    between atoms: _286  and  _288
REMARK  117  A    between atoms: _288  and  _289
REMARK  118  A    between atoms: _288  and  _291
REMARK  119  A    between atoms: _291  and  _292
REMARK  120  A    between atoms: _292  and  _293
REMARK  121  A    between atoms: _293  and  _294
REMARK  122  A    between atoms: _303  and  _305
REMARK  123  A    between atoms: _305  and  _306
REMARK  124  A    between atoms: _305  and  _308
REMARK  125  A    between atoms: _308  and  _309
REMARK  126  A    between atoms: _309  and  _310
REMARK  127  A    between atoms: _310  and  _311
REMARK  128  A    between atoms: _321  and  _322
REMARK  129  A    between atoms: _327  and  _329
REMARK  130  A    between atoms: _329  and  _330
REMARK  131  A    between atoms: _329  and  _332
REMARK  132  A    between atoms: _332  and  _333
REMARK  133  A    between atoms: _336  and  _338
REMARK  134  A    between atoms: _338  and  _339
REMARK  135  A    between atoms: _338  and  _341
REMARK  136  A    between atoms: _341  and  _342
REMARK  137  A    between atoms: _345  and  _347
REMARK  138  A    between atoms: _347  and  _348
REMARK  139  A    between atoms: _347  and  _350
REMARK  140  A    between atoms: _350  and  _351
REMARK  141  A    between atoms: _354  and  _356
REMARK  142  A    between atoms: _356  and  _357
REMARK  143  A    between atoms: _356  and  _359
REMARK  144  A    between atoms: _359  and  _360
REMARK  145  A    between atoms: _363  and  _365
REMARK  146  A    between atoms: _365  and  _366
REMARK  147  A    between atoms: _365  and  _368
REMARK  148  A    between atoms: _368  and  _369
REMARK  149  A    between atoms: _372  and  _374
REMARK  150  A    between atoms: _374  and  _375
REMARK  151  A    between atoms: _377  and  _379
REMARK  152  A    between atoms: _379  and  _380
REMARK  153  A    between atoms: _383  and  _385
REMARK  154  A    between atoms: _385  and  _386
REMARK  155  A    between atoms: _385  and  _388
REMARK  156  A    between atoms: _388  and  _389
REMARK  157  A    between atoms: _392  and  _394
REMARK  158  A    between atoms: _394  and  _395
REMARK  159  A    between atoms: _394  and  _397
REMARK  160  A    between atoms: _397  and  _398
REMARK  161  A    between atoms: _401  and  _403
REMARK  162  A    between atoms: _403  and  _404
REMARK  163  A    between atoms: _403  and  _406
REMARK  164  A    between atoms: _406  and  _407
REMARK  165  A    between atoms: _410  and  _412
REMARK  166  A    between atoms: _412  and  _413
REMARK  167  A    between atoms: _412  and  _415
REMARK  168  A    between atoms: _418  and  _420
REMARK  169  A    between atoms: _420  and  _421
REMARK  170  A    between atoms: _420  and  _423
REMARK  171  A    between atoms: _423  and  _424
REMARK  172  A    between atoms: _427  and  _429
REMARK  173  A    between atoms: _429  and  _430
REMARK  174  A    between atoms: _429  and  _432
REMARK  175  A    between atoms: _432  and  _433
REMARK  176  A    between atoms: _433  and  _434
REMARK  177  A    between atoms: _434  and  _435
REMARK  178  A    between atoms: _435  and  _436
REMARK  179  A    between atoms: _440  and  _442
REMARK  180  A    between atoms: _442  and  _443
REMARK  181  A    between atoms: _442  and  _445
REMARK  182  A    between atoms: _445  and  _446
REMARK  183  A    between atoms: _446  and  _447
REMARK  184  A    between atoms: _449  and  _451
REMARK  185  A    between atoms: _451  and  _452
REMARK  186  A    between atoms: _451  and  _454
REMARK  187  A    between atoms: _454  and  _455
REMARK  188  A    between atoms: _458  and  _460
REMARK  189  A    between atoms: _460  and  _461
REMARK  190  A    between atoms: _463  and  _465
REMARK  191  A    between atoms: _465  and  _466
REMARK  192  A    between atoms: _468  and  _470
REMARK  193  A    between atoms: _470  and  _471
REMARK  194  A    between atoms: _470  and  _473
REMARK  195  A    between atoms: _473  and  _474
REMARK  196  A    between atoms: _477  and  _479
REMARK  197  A    between atoms: _479  and  _480
REMARK  198  A    between atoms: _482  and  _484
REMARK  199  A    between atoms: _484  and  _485
REMARK  200  A    between atoms: _487  and  _489
REMARK  201  A    between atoms: _489  and  _490
REMARK  202  A    between atoms: _489  and  _492
REMARK  203  A    between atoms: _492  and  _493
REMARK  204  A    between atoms: _496  and  _498
REMARK  205  A    between atoms: _498  and  _499
REMARK  206  A    between atoms: _498  and  _501
REMARK  207  A    between atoms: _504  and  _506
REMARK  208  A    between atoms: _506  and  _507
REMARK  209  A    between atoms: _506  and  _509
REMARK  210  A    between atoms: _509  and  _510
REMARK  211  A    between atoms: _514  and  _515
REMARK  212  A    between atoms: _520  and  _522
REMARK  213  A    between atoms: _522  and  _523
REMARK  214  A    between atoms: _522  and  _525
REMARK  215  A    between atoms: _525  and  _526
REMARK  216  A    between atoms: _530  and  _531
REMARK  217  A    between atoms: _536  and  _538
REMARK  218  A    between atoms: _538  and  _539
REMARK  219  A    between atoms: _542  and  _544
REMARK  220  A    between atoms: _544  and  _545
REMARK  221  A    between atoms: _544  and  _547
REMARK  222  A    between atoms: _547  and  _548
REMARK  223  A    between atoms: _553  and  _555
REMARK  224  A    between atoms: _555  and  _556
REMARK  225  A    between atoms: _555  and  _558
REMARK  226  A    between atoms: _558  and  _559
REMARK  227  A    between atoms: _562  and  _564
REMARK  228  A    between atoms: _564  and  _565
REMARK  229  A    between atoms: _564  and  _567
REMARK  230  A    between atoms: _567  and  _568
REMARK  231  A    between atoms: _571  and  _573
REMARK  232  A    between atoms: _573  and  _574
REMARK  233  A    between atoms: _576  and  _578
REMARK  234  A    between atoms: _578  and  _579
REMARK  235  A    between atoms: _578  and  _581
REMARK  236  A    between atoms: _581  and  _582
REMARK  237  A    between atoms: _582  and  _583
REMARK  238  A    between atoms: _583  and  _584
REMARK                            x       y       z     vdW  Elec       q    Type
REMARK                         _______ _______ _______ _____ _____    ______ ____
ROOT
ATOM      1  O   HOH     1      18.889 -36.907   1.195  0.00  0.00    +0.000 OA
ENDROOT
TORSDOF 0
REMARK  Name = ../refined-set-2016/2fle/2fle_pocket.pdb
REMARK  238 active torsions:
REMARK  status: ('A' for Active; 'I' for Inactive)
REMARK    1  A    between atoms: _1  and  _3
REMARK    2  A    between atoms: _3  and  _4
REMARK    3  A    between atoms: _3  and  _6
REMARK    4  A    between atoms: _6  and  _7
REMARK    5  A    between atoms: _7  and  _8
REMARK    6  A    between atoms: _8  and  _9
REMARK    7  A    between atoms: _19  and  _20
REMARK    8  A    between atoms: _25  and  _27
REMARK    9  A    between atoms: _27  and  _28
REMARK   10  A    between atoms: _27  and  _30
REMARK   11  A    between atoms: _30  and  _31
REMARK   12  A    between atoms: _34  and  _36
REMARK   13  A    between atoms: _36  and  _37
REMARK   14  A    between atoms: _36  and  _39
REMARK   15  A    between atoms: _39  and  _40
REMARK   16  A    between atoms: _43  and  _45
REMARK   17  A    between atoms: _45  and  _46
REMARK   18  A    between atoms: _45  and  _48
REMARK   19  A    between atoms: _48  and  _49
REMARK   20  A    between atoms: _52  and  _54
REMARK   21  A    between atoms: _54  and  _55
REMARK   22  A    between atoms: _54  and  _57
REMARK   23  A    between atoms: _57  and  _58
REMARK   24  A    between atoms: _61  and  _63
REMARK   25  A    between atoms: _63  and  _64
REMARK   26  A    between atoms: _63  and  _66
REMARK   27  A    between atoms: _66  and  _67
REMARK   28  A    between atoms: _70  and  _72
REMARK   29  A    between atoms: _72  and  _73
REMARK   30  A    between atoms: _75  and  _77
REMARK   31  A    between atoms: _77  and  _78
REMARK   32  A    between atoms: _81  and  _83
REMARK   33  A    between atoms: _83  and  _84
REMARK   34  A    between atoms: _83  and  _86
REMARK   35  A    between atoms: _86  and  _87
REMARK   36  A    between atoms: _90  and  _92
REMARK   37  A    between atoms: _92  and  _93
REMARK   38  A    between atoms: _92  and  _95
REMARK   39  A    between atoms: _95  and  _96
REMARK   40  A    between atoms: _99  and  _101
REMARK   41  A    between atoms: _101  and  _102
REMARK   42  A    between atoms: _101  and  _104
REMARK   43  A    between atoms: _104  and  _105
REMARK   44  A    between atoms: _108  and  _110
REMARK   45  A    between atoms: _110  and  _111
REMARK   46  A    between atoms: _110  and  _113
REMARK   47  A    between atoms: _116  and  _118
REMARK   48  A    between atoms: _118  and  _119
REMARK   49  A    between atoms: _118  and  _121
REMARK   50  A    between atoms: _121  and  _122
REMARK   51  A    between atoms: _125  and  _127
REMARK   52  A    between atoms: _127  and  _128
REMARK   53  A    between atoms: _127  and  _130
REMARK   54  A    between atoms: _130  and  _131
REMARK   55  A    between atoms: _131  and  _132
REMARK   56  A    between atoms: _132  and  _133
REMARK   57  A    between atoms: _133  and  _134
REMARK   58  A    between atoms: _138  and  _140
REMARK   59  A    between atoms: _140  and  _141
REMARK   60  A    between atoms: _140  and  _143
REMARK   61  A    between atoms: _143  and  _144
REMARK   62  A    between atoms: _144  and  _145
REMARK   63  A    between atoms: _147  and  _149
REMARK   64  A    between atoms: _149  and  _150
REMARK   65  A    between atoms: _149  and  _152
REMARK   66  A    between atoms: _152  and  _153
REMARK   67  A    between atoms: _156  and  _158
REMARK   68  A    between atoms: _158  and  _159
REMARK   69  A    between atoms: _161  and  _163
REMARK   70  A    between atoms: _163  and  _164
REMARK   71  A    between atoms: _166  and  _168
REMARK   72  A    between atoms: _168  and  _169
REMARK   73  A    between atoms: _168  and  _171
REMARK   74  A    between atoms: _171  and  _172
REMARK   75  A    between atoms: _175  and  _177
REMARK   76  A    between atoms: _177  and  _178
REMARK   77  A    between atoms: _180  and  _182
REMARK   78  A    between atoms: _182  and  _183
REMARK   79  A    between atoms: _185  and  _187
REMARK   80  A    between atoms: _187  and  _188
REMARK   81  A    between atoms: _187  and  _190
REMARK   82  A    between atoms: _190  and  _191
REMARK   83  A    between atoms: _197  and  _199
REMARK   84  A    between atoms: _199  and  _200
REMARK   85  A    between atoms: _199  and  _202
REMARK   86  A    between atoms: _202  and  _203
REMARK   87  A    between atoms: _206  and  _208
REMARK   88  A    between atoms: _208  and  _209
REMARK   89  A    between atoms: _208  and  _211
REMARK   90  A    between atoms: _214  and  _216
REMARK   91  A    between atoms: _216  and  _217
REMARK   92  A    between atoms: _216  and  _219
REMARK   93  A    between atoms: _219  and  _220
REMARK   94  A    between atoms: _224  and  _225
REMARK   95  A    between atoms: _230  and  _232
REMARK   96  A    between atoms: _232  and  _233
REMARK   97  A    between atoms: _232  and  _235
REMARK   98  A    between atoms: _235  and  _236
REMARK   99  A    between atoms: _240  and  _241
REMARK  100  A    between atoms: _246  and  _248
REMARK  101  A    between atoms: _248  and  _249
REMARK  102  A    between atoms: _252  and  _254
REMARK  103  A    between atoms: _254  and  _255
REMARK  104  A    between atoms: _254  and  _257
REMARK  105  A    between atoms: _257  and  _258
REMARK  106  A    between atoms: _263  and  _265
REMARK  107  A    between atoms: _265  and  _266
REMARK  108  A    between atoms: _265  and  _268
REMARK  109  A    between atoms: _268  and  _269
REMARK  110  A    between atoms: _272  and  _274
REMARK  111  A    between atoms: _274  and  _275
REMARK  112  A    between atoms: _274  and  _277
REMARK  113  A    between atoms: _277  and  _278
REMARK  114  A    between atoms: _281  and  _283
REMARK  115  A    between atoms: _283  and  _284
REMARK  116  A    between atoms: _286  and  _288
REMARK  117  A    between atoms: _288  and  _289
REMARK  118  A    between atoms: _288  and  _291
REMARK  119  A    between atoms: _291  and  _292
REMARK  120  A    between atoms: _292  and  _293
REMARK  121  A    between atoms: _293  and  _294
REMARK  122  A    between atoms: _303  and  _305
REMARK  123  A    between atoms: _305  and  _306
REMARK  124  A    between atoms: _305  and  _308
REMARK  125  A    between atoms: _308  and  _309
REMARK  126  A    between atoms: _309  and  _310
REMARK  127  A    between atoms: _310  and  _311
REMARK  128  A    between atoms: _321  and  _322
REMARK  129  A    between atoms: _327  and  _329
REMARK  130  A    between atoms: _329  and  _330
REMARK  131  A    between atoms: _329  and  _332
REMARK  132  A    between atoms: _332  and  _333
REMARK  133  A    between atoms: _336  and  _338
REMARK  134  A    between atoms: _338  and  _339
REMARK  135  A    between atoms: _338  and  _341
REMARK  136  A    between atoms: _341  and  _342
REMARK  137  A    between atoms: _345  and  _347
REMARK  138  A    between atoms: _347  and  _348
REMARK  139  A    between atoms: _347  and  _350
REMARK  140  A    between atoms: _350  and  _351
REMARK  141  A    between atoms: _354  and  _356
REMARK  142  A    between atoms: _356  and  _357
REMARK  143  A    between atoms: _356  and  _359
REMARK  144  A    between atoms: _359  and  _360
REMARK  145  A    between atoms: _363  and  _365
REMARK  146  A    between atoms: _365  and  _366
REMARK  147  A    between atoms: _365  and  _368
REMARK  148  A    between atoms: _368  and  _369
REMARK  149  A    between atoms: _372  and  _374
REMARK  150  A    between atoms: _374  and  _375
REMARK  151  A    between atoms: _377  and  _379
REMARK  152  A    between atoms: _379  and  _380
REMARK  153  A    between atoms: _383  and  _385
REMARK  154  A    between atoms: _385  and  _386
REMARK  155  A    between atoms: _385  and  _388
REMARK  156  A    between atoms: _388  and  _389
REMARK  157  A    between atoms: _392  and  _394
REMARK  158  A    between atoms: _394  and  _395
REMARK  159  A    between atoms: _394  and  _397
REMARK  160  A    between atoms: _397  and  _398
REMARK  161  A    between atoms: _401  and  _403
REMARK  162  A    between atoms: _403  and  _404
REMARK  163  A    between atoms: _403  and  _406
REMARK  164  A    between atoms: _406  and  _407
REMARK  165  A    between atoms: _410  and  _412
REMARK  166  A    between atoms: _412  and  _413
REMARK  167  A    between atoms: _412  and  _415
REMARK  168  A    between atoms: _418  and  _420
REMARK  169  A    between atoms: _420  and  _421
REMARK  170  A    between atoms: _420  and  _423
REMARK  171  A    between atoms: _423  and  _424
REMARK  172  A    between atoms: _427  and  _429
REMARK  173  A    between atoms: _429  and  _430
REMARK  174  A    between atoms: _429  and  _432
REMARK  175  A    between atoms: _432  and  _433
REMARK  176  A    between atoms: _433  and  _434
REMARK  177  A    between atoms: _434  and  _435
REMARK  178  A    between atoms: _435  and  _436
REMARK  179  A    between atoms: _440  and  _442
REMARK  180  A    between atoms: _442  and  _443
REMARK  181  A    between atoms: _442  and  _445
REMARK  182  A    between atoms: _445  and  _446
REMARK  183  A    between atoms: _446  and  _447
REMARK  184  A    between atoms: _449  and  _451
REMARK  185  A    between atoms: _451  and  _452
REMARK  186  A    between atoms: _451  and  _454
REMARK  187  A    between atoms: _454  and  _455
REMARK  188  A    between atoms: _458  and  _460
REMARK  189  A    between atoms: _460  and  _461
REMARK  190  A    between atoms: _463  and  _465
REMARK  191  A    between atoms: _465  and  _466
REMARK  192  A    between atoms: _468  and  _470
REMARK  193  A    between atoms: _470  and  _471
REMARK  194  A    between atoms: _470  and  _473
REMARK  195  A    between atoms: _473  and  _474
REMARK  196  A    between atoms: _477  and  _479
REMARK  197  A    between atoms: _479  and  _480
REMARK  198  A    between atoms: _482  and  _484
REMARK  199  A    between atoms: _484  and  _485
REMARK  200  A    between atoms: _487  and  _489
REMARK  201  A    between atoms: _489  and  _490
REMARK  202  A    between atoms: _489  and  _492
REMARK  203  A    between atoms: _492  and  _493
REMARK  204  A    between atoms: _496  and  _498
REMARK  205  A    between atoms: _498  and  _499
REMARK  206  A    between atoms: _498  and  _501
REMARK  207  A    between atoms: _504  and  _506
REMARK  208  A    between atoms: _506  and  _507
REMARK  209  A    between atoms: _506  and  _509
REMARK  210  A    between atoms: _509  and  _510
REMARK  211  A    between atoms: _514  and  _515
REMARK  212  A    between atoms: _520  and  _522
REMARK  213  A    between atoms: _522  and  _523
REMARK  214  A    between atoms: _522  and  _525
REMARK  215  A    between atoms: _525  and  _526
REMARK  216  A    between atoms: _530  and  _531
REMARK  217  A    between atoms: _536  and  _538
REMARK  218  A    between atoms: _538  and  _539
REMARK  219  A    between atoms: _542  and  _544
REMARK  220  A    between atoms: _544  and  _545
REMARK  221  A    between atoms: _544  and  _547
REMARK  222  A    between atoms: _547  and  _548
REMARK  223  A    between atoms: _553  and  _555
REMARK  224  A    between atoms: _555  and  _556
REMARK  225  A    between atoms: _555  and  _558
REMARK  226  A    between atoms: _558  and  _559
REMARK  227  A    between atoms: _562  and  _564
REMARK  228  A    between atoms: _564  and  _565
REMARK  229  A    between atoms: _564  and  _567
REMARK  230  A    between atoms: _567  and  _568
REMARK  231  A    between atoms: _571  and  _573
REMARK  232  A    between atoms: _573  and  _574
REMARK  233  A    between atoms: _576  and  _578
REMARK  234  A    between atoms: _578  and  _579
REMARK  235  A    between atoms: _578  and  _581
REMARK  236  A    between atoms: _581  and  _582
REMARK  237  A    between atoms: _582  and  _583
REMARK  238  A    between atoms: _583  and  _584
REMARK                            x       y       z     vdW  Elec       q    Type
REMARK                         _______ _______ _______ _____ _____    ______ ____
ROOT
ATOM      1  O   HOH     1      23.146 -30.040   9.453  0.00  0.00    +0.000 OA
ENDROOT
TORSDOF 0
REMARK  Name = ../refined-set-2016/2fle/2fle_pocket.pdb
REMARK  238 active torsions:
REMARK  status: ('A' for Active; 'I' for Inactive)
REMARK    1  A    between atoms: _1  and  _3
REMARK    2  A    between atoms: _3  and  _4
REMARK    3  A    between atoms: _3  and  _6
REMARK    4  A    between atoms: _6  and  _7
REMARK    5  A    between atoms: _7  and  _8
REMARK    6  A    between atoms: _8  and  _9
REMARK    7  A    between atoms: _19  and  _20
REMARK    8  A    between atoms: _25  and  _27
REMARK    9  A    between atoms: _27  and  _28
REMARK   10  A    between atoms: _27  and  _30
REMARK   11  A    between atoms: _30  and  _31
REMARK   12  A    between atoms: _34  and  _36
REMARK   13  A    between atoms: _36  and  _37
REMARK   14  A    between atoms: _36  and  _39
REMARK   15  A    between atoms: _39  and  _40
REMARK   16  A    between atoms: _43  and  _45
REMARK   17  A    between atoms: _45  and  _46
REMARK   18  A    between atoms: _45  and  _48
REMARK   19  A    between atoms: _48  and  _49
REMARK   20  A    between atoms: _52  and  _54
REMARK   21  A    between atoms: _54  and  _55
REMARK   22  A    between atoms: _54  and  _57
REMARK   23  A    between atoms: _57  and  _58
REMARK   24  A    between atoms: _61  and  _63
REMARK   25  A    between atoms: _63  and  _64
REMARK   26  A    between atoms: _63  and  _66
REMARK   27  A    between atoms: _66  and  _67
REMARK   28  A    between atoms: _70  and  _72
REMARK   29  A    between atoms: _72  and  _73
REMARK   30  A    between atoms: _75  and  _77
REMARK   31  A    between atoms: _77  and  _78
REMARK   32  A    between atoms: _81  and  _83
REMARK   33  A    between atoms: _83  and  _84
REMARK   34  A    between atoms: _83  and  _86
REMARK   35  A    between atoms: _86  and  _87
REMARK   36  A    between atoms: _90  and  _92
REMARK   37  A    between atoms: _92  and  _93
REMARK   38  A    between atoms: _92  and  _95
REMARK   39  A    between atoms: _95  and  _96
REMARK   40  A    between atoms: _99  and  _101
REMARK   41  A    between atoms: _101  and  _102
REMARK   42  A    between atoms: _101  and  _104
REMARK   43  A    between atoms: _104  and  _105
REMARK   44  A    between atoms: _108  and  _110
REMARK   45  A    between atoms: _110  and  _111
REMARK   46  A    between atoms: _110  and  _113
REMARK   47  A    between atoms: _116  and  _118
REMARK   48  A    between atoms: _118  and  _119
REMARK   49  A    between atoms: _118  and  _121
REMARK   50  A    between atoms: _121  and  _122
REMARK   51  A    between atoms: _125  and  _127
REMARK   52  A    between atoms: _127  and  _128
REMARK   53  A    between atoms: _127  and  _130
REMARK   54  A    between atoms: _130  and  _131
REMARK   55  A    between atoms: _131  and  _132
REMARK   56  A    between atoms: _132  and  _133
REMARK   57  A    between atoms: _133  and  _134
REMARK   58  A    between atoms: _138  and  _140
REMARK   59  A    between atoms: _140  and  _141
REMARK   60  A    between atoms: _140  and  _143
REMARK   61  A    between atoms: _143  and  _144
REMARK   62  A    between atoms: _144  and  _145
REMARK   63  A    between atoms: _147  and  _149
REMARK   64  A    between atoms: _149  and  _150
REMARK   65  A    between atoms: _149  and  _152
REMARK   66  A    between atoms: _152  and  _153
REMARK   67  A    between atoms: _156  and  _158
REMARK   68  A    between atoms: _158  and  _159
REMARK   69  A    between atoms: _161  and  _163
REMARK   70  A    between atoms: _163  and  _164
REMARK   71  A    between atoms: _166  and  _168
REMARK   72  A    between atoms: _168  and  _169
REMARK   73  A    between atoms: _168  and  _171
REMARK   74  A    between atoms: _171  and  _172
REMARK   75  A    between atoms: _175  and  _177
REMARK   76  A    between atoms: _177  and  _178
REMARK   77  A    between atoms: _180  and  _182
REMARK   78  A    between atoms: _182  and  _183
REMARK   79  A    between atoms: _185  and  _187
REMARK   80  A    between atoms: _187  and  _188
REMARK   81  A    between atoms: _187  and  _190
REMARK   82  A    between atoms: _190  and  _191
REMARK   83  A    between atoms: _197  and  _199
REMARK   84  A    between atoms: _199  and  _200
REMARK   85  A    between atoms: _199  and  _202
REMARK   86  A    between atoms: _202  and  _203
REMARK   87  A    between atoms: _206  and  _208
REMARK   88  A    between atoms: _208  and  _209
REMARK   89  A    between atoms: _208  and  _211
REMARK   90  A    between atoms: _214  and  _216
REMARK   91  A    between atoms: _216  and  _217
REMARK   92  A    between atoms: _216  and  _219
REMARK   93  A    between atoms: _219  and  _220
REMARK   94  A    between atoms: _224  and  _225
REMARK   95  A    between atoms: _230  and  _232
REMARK   96  A    between atoms: _232  and  _233
REMARK   97  A    between atoms: _232  and  _235
REMARK   98  A    between atoms: _235  and  _236
REMARK   99  A    between atoms: _240  and  _241
REMARK  100  A    between atoms: _246  and  _248
REMARK  101  A    between atoms: _248  and  _249
REMARK  102  A    between atoms: _252  and  _254
REMARK  103  A    between atoms: _254  and  _255
REMARK  104  A    between atoms: _254  and  _257
REMARK  105  A    between atoms: _257  and  _258
REMARK  106  A    between atoms: _263  and  _265
REMARK  107  A    between atoms: _265  and  _266
REMARK  108  A    between atoms: _265  and  _268
REMARK  109  A    between atoms: _268  and  _269
REMARK  110  A    between atoms: _272  and  _274
REMARK  111  A    between atoms: _274  and  _275
REMARK  112  A    between atoms: _274  and  _277
REMARK  113  A    between atoms: _277  and  _278
REMARK  114  A    between atoms: _281  and  _283
REMARK  115  A    between atoms: _283  and  _284
REMARK  116  A    between atoms: _286  and  _288
REMARK  117  A    between atoms: _288  and  _289
REMARK  118  A    between atoms: _288  and  _291
REMARK  119  A    between atoms: _291  and  _292
REMARK  120  A    between atoms: _292  and  _293
REMARK  121  A    between atoms: _293  and  _294
REMARK  122  A    between atoms: _303  and  _305
REMARK  123  A    between atoms: _305  and  _306
REMARK  124  A    between atoms: _305  and  _308
REMARK  125  A    between atoms: _308  and  _309
REMARK  126  A    between atoms: _309  and  _310
REMARK  127  A    between atoms: _310  and  _311
REMARK  128  A    between atoms: _321  and  _322
REMARK  129  A    between atoms: _327  and  _329
REMARK  130  A    between atoms: _329  and  _330
REMARK  131  A    between atoms: _329  and  _332
REMARK  132  A    between atoms: _332  and  _333
REMARK  133  A    between atoms: _336  and  _338
REMARK  134  A    between atoms: _338  and  _339
REMARK  135  A    between atoms: _338  and  _341
REMARK  136  A    between atoms: _341  and  _342
REMARK  137  A    between atoms: _345  and  _347
REMARK  138  A    between atoms: _347  and  _348
REMARK  139  A    between atoms: _347  and  _350
REMARK  140  A    between atoms: _350  and  _351
REMARK  141  A    between atoms: _354  and  _356
REMARK  142  A    between atoms: _356  and  _357
REMARK  143  A    between atoms: _356  and  _359
REMARK  144  A    between atoms: _359  and  _360
REMARK  145  A    between atoms: _363  and  _365
REMARK  146  A    between atoms: _365  and  _366
REMARK  147  A    between atoms: _365  and  _368
REMARK  148  A    between atoms: _368  and  _369
REMARK  149  A    between atoms: _372  and  _374
REMARK  150  A    between atoms: _374  and  _375
REMARK  151  A    between atoms: _377  and  _379
REMARK  152  A    between atoms: _379  and  _380
REMARK  153  A    between atoms: _383  and  _385
REMARK  154  A    between atoms: _385  and  _386
REMARK  155  A    between atoms: _385  and  _388
REMARK  156  A    between atoms: _388  and  _389
REMARK  157  A    between atoms: _392  and  _394
REMARK  158  A    between atoms: _394  and  _395
REMARK  159  A    between atoms: _394  and  _397
REMARK  160  A    between atoms: _397  and  _398
REMARK  161  A    between atoms: _401  and  _403
REMARK  162  A    between atoms: _403  and  _404
REMARK  163  A    between atoms: _403  and  _406
REMARK  164  A    between atoms: _406  and  _407
REMARK  165  A    between atoms: _410  and  _412
REMARK  166  A    between atoms: _412  and  _413
REMARK  167  A    between atoms: _412  and  _415
REMARK  168  A    between atoms: _418  and  _420
REMARK  169  A    between atoms: _420  and  _421
REMARK  170  A    between atoms: _420  and  _423
REMARK  171  A    between atoms: _423  and  _424
REMARK  172  A    between atoms: _427  and  _429
REMARK  173  A    between atoms: _429  and  _430
REMARK  174  A    between atoms: _429  and  _432
REMARK  175  A    between atoms: _432  and  _433
REMARK  176  A    between atoms: _433  and  _434
REMARK  177  A    between atoms: _434  and  _435
REMARK  178  A    between atoms: _435  and  _436
REMARK  179  A    between atoms: _440  and  _442
REMARK  180  A    between atoms: _442  and  _443
REMARK  181  A    between atoms: _442  and  _445
REMARK  182  A    between atoms: _445  and  _446
REMARK  183  A    between atoms: _446  and  _447
REMARK  184  A    between atoms: _449  and  _451
REMARK  185  A    between atoms: _451  and  _452
REMARK  186  A    between atoms: _451  and  _454
REMARK  187  A    between atoms: _454  and  _455
REMARK  188  A    between atoms: _458  and  _460
REMARK  189  A    between atoms: _460  and  _461
REMARK  190  A    between atoms: _463  and  _465
REMARK  191  A    between atoms: _465  and  _466
REMARK  192  A    between atoms: _468  and  _470
REMARK  193  A    between atoms: _470  and  _471
REMARK  194  A    between atoms: _470  and  _473
REMARK  195  A    between atoms: _473  and  _474
REMARK  196  A    between atoms: _477  and  _479
REMARK  197  A    between atoms: _479  and  _480
REMARK  198  A    between atoms: _482  and  _484
REMARK  199  A    between atoms: _484  and  _485
REMARK  200  A    between atoms: _487  and  _489
REMARK  201  A    between atoms: _489  and  _490
REMARK  202  A    between atoms: _489  and  _492
REMARK  203  A    between atoms: _492  and  _493
REMARK  204  A    between atoms: _496  and  _498
REMARK  205  A    between atoms: _498  and  _499
REMARK  206  A    between atoms: _498  and  _501
REMARK  207  A    between atoms: _504  and  _506
REMARK  208  A    between atoms: _506  and  _507
REMARK  209  A    between atoms: _506  and  _509
REMARK  210  A    between atoms: _509  and  _510
REMARK  211  A    between atoms: _514  and  _515
REMARK  212  A    between atoms: _520  and  _522
REMARK  213  A    between atoms: _522  and  _523
REMARK  214  A    between atoms: _522  and  _525
REMARK  215  A    between atoms: _525  and  _526
REMARK  216  A    between atoms: _530  and  _531
REMARK  217  A    between atoms: _536  and  _538
REMARK  218  A    between atoms: _538  and  _539
REMARK  219  A    between atoms: _542  and  _544
REMARK  220  A    between atoms: _544  and  _545
REMARK  221  A    between atoms: _544  and  _547
REMARK  222  A    between atoms: _547  and  _548
REMARK  223  A    between atoms: _553  and  _555
REMARK  224  A    between atoms: _555  and  _556
REMARK  225  A    between atoms: _555  and  _558
REMARK  226  A    between atoms: _558  and  _559
REMARK  227  A    between atoms: _562  and  _564
REMARK  228  A    between atoms: _564  and  _565
REMARK  229  A    between atoms: _564  and  _567
REMARK  230  A    between atoms: _567  and  _568
REMARK  231  A    between atoms: _571  and  _573
REMARK  232  A    between atoms: _573  and  _574
REMARK  233  A    between atoms: _576  and  _578
REMARK  234  A    between atoms: _578  and  _579
REMARK  235  A    between atoms: _578  and  _581
REMARK  236  A    between atoms: _581  and  _582
REMARK  237  A    between atoms: _582  and  _583
REMARK  238  A    between atoms: _583  and  _584
REMARK                            x       y       z     vdW  Elec       q    Type
REMARK                         _______ _______ _______ _____ _____    ______ ____
ROOT
ATOM      1  O   HOH     1      27.120 -38.982   5.624  0.00  0.00    +0.000 OA
ENDROOT
TORSDOF 0
REMARK  Name = ../refined-set-2016/2fle/2fle_pocket.pdb
REMARK  238 active torsions:
REMARK  status: ('A' for Active; 'I' for Inactive)
REMARK    1  A    between atoms: _1  and  _3
REMARK    2  A    between atoms: _3  and  _4
REMARK    3  A    between atoms: _3  and  _6
REMARK    4  A    between atoms: _6  and  _7
REMARK    5  A    between atoms: _7  and  _8
REMARK    6  A    between atoms: _8  and  _9
REMARK    7  A    between atoms: _19  and  _20
REMARK    8  A    between atoms: _25  and  _27
REMARK    9  A    between atoms: _27  and  _28
REMARK   10  A    between atoms: _27  and  _30
REMARK   11  A    between atoms: _30  and  _31
REMARK   12  A    between atoms: _34  and  _36
REMARK   13  A    between atoms: _36  and  _37
REMARK   14  A    between atoms: _36  and  _39
REMARK   15  A    between atoms: _39  and  _40
REMARK   16  A    between atoms: _43  and  _45
REMARK   17  A    between atoms: _45  and  _46
REMARK   18  A    between atoms: _45  and  _48
REMARK   19  A    between atoms: _48  and  _49
REMARK   20  A    between atoms: _52  and  _54
REMARK   21  A    between atoms: _54  and  _55
REMARK   22  A    between atoms: _54  and  _57
REMARK   23  A    between atoms: _57  and  _58
REMARK   24  A    between atoms: _61  and  _63
REMARK   25  A    between atoms: _63  and  _64
REMARK   26  A    between atoms: _63  and  _66
REMARK   27  A    between atoms: _66  and  _67
REMARK   28  A    between atoms: _70  and  _72
REMARK   29  A    between atoms: _72  and  _73
REMARK   30  A    between atoms: _75  and  _77
REMARK   31  A    between atoms: _77  and  _78
REMARK   32  A    between atoms: _81  and  _83
REMARK   33  A    between atoms: _83  and  _84
REMARK   34  A    between atoms: _83  and  _86
REMARK   35  A    between atoms: _86  and  _87
REMARK   36  A    between atoms: _90  and  _92
REMARK   37  A    between atoms: _92  and  _93
REMARK   38  A    between atoms: _92  and  _95
REMARK   39  A    between atoms: _95  and  _96
REMARK   40  A    between atoms: _99  and  _101
REMARK   41  A    between atoms: _101  and  _102
REMARK   42  A    between atoms: _101  and  _104
REMARK   43  A    between atoms: _104  and  _105
REMARK   44  A    between atoms: _108  and  _110
REMARK   45  A    between atoms: _110  and  _111
REMARK   46  A    between atoms: _110  and  _113
REMARK   47  A    between atoms: _116  and  _118
REMARK   48  A    between atoms: _118  and  _119
REMARK   49  A    between atoms: _118  and  _121
REMARK   50  A    between atoms: _121  and  _122
REMARK   51  A    between atoms: _125  and  _127
REMARK   52  A    between atoms: _127  and  _128
REMARK   53  A    between atoms: _127  and  _130
REMARK   54  A    between atoms: _130  and  _131
REMARK   55  A    between atoms: _131  and  _132
REMARK   56  A    between atoms: _132  and  _133
REMARK   57  A    between atoms: _133  and  _134
REMARK   58  A    between atoms: _138  and  _140
REMARK   59  A    between atoms: _140  and  _141
REMARK   60  A    between atoms: _140  and  _143
REMARK   61  A    between atoms: _143  and  _144
REMARK   62  A    between atoms: _144  and  _145
REMARK   63  A    between atoms: _147  and  _149
REMARK   64  A    between atoms: _149  and  _150
REMARK   65  A    between atoms: _149  and  _152
REMARK   66  A    between atoms: _152  and  _153
REMARK   67  A    between atoms: _156  and  _158
REMARK   68  A    between atoms: _158  and  _159
REMARK   69  A    between atoms: _161  and  _163
REMARK   70  A    between atoms: _163  and  _164
REMARK   71  A    between atoms: _166  and  _168
REMARK   72  A    between atoms: _168  and  _169
REMARK   73  A    between atoms: _168  and  _171
REMARK   74  A    between atoms: _171  and  _172
REMARK   75  A    between atoms: _175  and  _177
REMARK   76  A    between atoms: _177  and  _178
REMARK   77  A    between atoms: _180  and  _182
REMARK   78  A    between atoms: _182  and  _183
REMARK   79  A    between atoms: _185  and  _187
REMARK   80  A    between atoms: _187  and  _188
REMARK   81  A    between atoms: _187  and  _190
REMARK   82  A    between atoms: _190  and  _191
REMARK   83  A    between atoms: _197  and  _199
REMARK   84  A    between atoms: _199  and  _200
REMARK   85  A    between atoms: _199  and  _202
REMARK   86  A    between atoms: _202  and  _203
REMARK   87  A    between atoms: _206  and  _208
REMARK   88  A    between atoms: _208  and  _209
REMARK   89  A    between atoms: _208  and  _211
REMARK   90  A    between atoms: _214  and  _216
REMARK   91  A    between atoms: _216  and  _217
REMARK   92  A    between atoms: _216  and  _219
REMARK   93  A    between atoms: _219  and  _220
REMARK   94  A    between atoms: _224  and  _225
REMARK   95  A    between atoms: _230  and  _232
REMARK   96  A    between atoms: _232  and  _233
REMARK   97  A    between atoms: _232  and  _235
REMARK   98  A    between atoms: _235  and  _236
REMARK   99  A    between atoms: _240  and  _241
REMARK  100  A    between atoms: _246  and  _248
REMARK  101  A    between atoms: _248  and  _249
REMARK  102  A    between atoms: _252  and  _254
REMARK  103  A    between atoms: _254  and  _255
REMARK  104  A    between atoms: _254  and  _257
REMARK  105  A    between atoms: _257  and  _258
REMARK  106  A    between atoms: _263  and  _265
REMARK  107  A    between atoms: _265  and  _266
REMARK  108  A    between atoms: _265  and  _268
REMARK  109  A    between atoms: _268  and  _269
REMARK  110  A    between atoms: _272  and  _274
REMARK  111  A    between atoms: _274  and  _275
REMARK  112  A    between atoms: _274  and  _277
REMARK  113  A    between atoms: _277  and  _278
REMARK  114  A    between atoms: _281  and  _283
REMARK  115  A    between atoms: _283  and  _284
REMARK  116  A    between atoms: _286  and  _288
REMARK  117  A    between atoms: _288  and  _289
REMARK  118  A    between atoms: _288  and  _291
REMARK  119  A    between atoms: _291  and  _292
REMARK  120  A    between atoms: _292  and  _293
REMARK  121  A    between atoms: _293  and  _294
REMARK  122  A    between atoms: _303  and  _305
REMARK  123  A    between atoms: _305  and  _306
REMARK  124  A    between atoms: _305  and  _308
REMARK  125  A    between atoms: _308  and  _309
REMARK  126  A    between atoms: _309  and  _310
REMARK  127  A    between atoms: _310  and  _311
REMARK  128  A    between atoms: _321  and  _322
REMARK  129  A    between atoms: _327  and  _329
REMARK  130  A    between atoms: _329  and  _330
REMARK  131  A    between atoms: _329  and  _332
REMARK  132  A    between atoms: _332  and  _333
REMARK  133  A    between atoms: _336  and  _338
REMARK  134  A    between atoms: _338  and  _339
REMARK  135  A    between atoms: _338  and  _341
REMARK  136  A    between atoms: _341  and  _342
REMARK  137  A    between atoms: _345  and  _347
REMARK  138  A    between atoms: _347  and  _348
REMARK  139  A    between atoms: _347  and  _350
REMARK  140  A    between atoms: _350  and  _351
REMARK  141  A    between atoms: _354  and  _356
REMARK  142  A    between atoms: _356  and  _357
REMARK  143  A    between atoms: _356  and  _359
REMARK  144  A    between atoms: _359  and  _360
REMARK  145  A    between atoms: _363  and  _365
REMARK  146  A    between atoms: _365  and  _366
REMARK  147  A    between atoms: _365  and  _368
REMARK  148  A    between atoms: _368  and  _369
REMARK  149  A    between atoms: _372  and  _374
REMARK  150  A    between atoms: _374  and  _375
REMARK  151  A    between atoms: _377  and  _379
REMARK  152  A    between atoms: _379  and  _380
REMARK  153  A    between atoms: _383  and  _385
REMARK  154  A    between atoms: _385  and  _386
REMARK  155  A    between atoms: _385  and  _388
REMARK  156  A    between atoms: _388  and  _389
REMARK  157  A    between atoms: _392  and  _394
REMARK  158  A    between atoms: _394  and  _395
REMARK  159  A    between atoms: _394  and  _397
REMARK  160  A    between atoms: _397  and  _398
REMARK  161  A    between atoms: _401  and  _403
REMARK  162  A    between atoms: _403  and  _404
REMARK  163  A    between atoms: _403  and  _406
REMARK  164  A    between atoms: _406  and  _407
REMARK  165  A    between atoms: _410  and  _412
REMARK  166  A    between atoms: _412  and  _413
REMARK  167  A    between atoms: _412  and  _415
REMARK  168  A    between atoms: _418  and  _420
REMARK  169  A    between atoms: _420  and  _421
REMARK  170  A    between atoms: _420  and  _423
REMARK  171  A    between atoms: _423  and  _424
REMARK  172  A    between atoms: _427  and  _429
REMARK  173  A    between atoms: _429  and  _430
REMARK  174  A    between atoms: _429  and  _432
REMARK  175  A    between atoms: _432  and  _433
REMARK  176  A    between atoms: _433  and  _434
REMARK  177  A    between atoms: _434  and  _435
REMARK  178  A    between atoms: _435  and  _436
REMARK  179  A    between atoms: _440  and  _442
REMARK  180  A    between atoms: _442  and  _443
REMARK  181  A    between atoms: _442  and  _445
REMARK  182  A    between atoms: _445  and  _446
REMARK  183  A    between atoms: _446  and  _447
REMARK  184  A    between atoms: _449  and  _451
REMARK  185  A    between atoms: _451  and  _452
REMARK  186  A    between atoms: _451  and  _454
REMARK  187  A    between atoms: _454  and  _455
REMARK  188  A    between atoms: _458  and  _460
REMARK  189  A    between atoms: _460  and  _461
REMARK  190  A    between atoms: _463  and  _465
REMARK  191  A    between atoms: _465  and  _466
REMARK  192  A    between atoms: _468  and  _470
REMARK  193  A    between atoms: _470  and  _471
REMARK  194  A    between atoms: _470  and  _473
REMARK  195  A    between atoms: _473  and  _474
REMARK  196  A    between atoms: _477  and  _479
REMARK  197  A    between atoms: _479  and  _480
REMARK  198  A    between atoms: _482  and  _484
REMARK  199  A    between atoms: _484  and  _485
REMARK  200  A    between atoms: _487  and  _489
REMARK  201  A    between atoms: _489  and  _490
REMARK  202  A    between atoms: _489  and  _492
REMARK  203  A    between atoms: _492  and  _493
REMARK  204  A    between atoms: _496  and  _498
REMARK  205  A    between atoms: _498  and  _499
REMARK  206  A    between atoms: _498  and  _501
REMARK  207  A    between atoms: _504  and  _506
REMARK  208  A    between atoms: _506  and  _507
REMARK  209  A    between atoms: _506  and  _509
REMARK  210  A    between atoms: _509  and  _510
REMARK  211  A    between atoms: _514  and  _515
REMARK  212  A    between atoms: _520  and  _522
REMARK  213  A    between atoms: _522  and  _523
REMARK  214  A    between atoms: _522  and  _525
REMARK  215  A    between atoms: _525  and  _526
REMARK  216  A    between atoms: _530  and  _531
REMARK  217  A    between atoms: _536  and  _538
REMARK  218  A    between atoms: _538  and  _539
REMARK  219  A    between atoms: _542  and  _544
REMARK  220  A    between atoms: _544  and  _545
REMARK  221  A    between atoms: _544  and  _547
REMARK  222  A    between atoms: _547  and  _548
REMARK  223  A    between atoms: _553  and  _555
REMARK  224  A    between atoms: _555  and  _556
REMARK  225  A    between atoms: _555  and  _558
REMARK  226  A    between atoms: _558  and  _559
REMARK  227  A    between atoms: _562  and  _564
REMARK  228  A    between atoms: _564  and  _565
REMARK  229  A    between atoms: _564  and  _567
REMARK  230  A    between atoms: _567  and  _568
REMARK  231  A    between atoms: _571  and  _573
REMARK  232  A    between atoms: _573  and  _574
REMARK  233  A    between atoms: _576  and  _578
REMARK  234  A    between atoms: _578  and  _579
REMARK  235  A    between atoms: _578  and  _581
REMARK  236  A    between atoms: _581  and  _582
REMARK  237  A    between atoms: _582  and  _583
REMARK  238  A    between atoms: _583  and  _584
REMARK                            x       y       z     vdW  Elec       q    Type
REMARK                         _______ _______ _______ _____ _____    ______ ____
ROOT
ATOM      1  O   HOH     1      27.001 -34.706   3.924  0.00  0.00    +0.000 OA
ENDROOT
TORSDOF 0
REMARK  Name = ../refined-set-2016/2fle/2fle_pocket.pdb
REMARK  238 active torsions:
REMARK  status: ('A' for Active; 'I' for Inactive)
REMARK    1  A    between atoms: _1  and  _3
REMARK    2  A    between atoms: _3  and  _4
REMARK    3  A    between atoms: _3  and  _6
REMARK    4  A    between atoms: _6  and  _7
REMARK    5  A    between atoms: _7  and  _8
REMARK    6  A    between atoms: _8  and  _9
REMARK    7  A    between atoms: _19  and  _20
REMARK    8  A    between atoms: _25  and  _27
REMARK    9  A    between atoms: _27  and  _28
REMARK   10  A    between atoms: _27  and  _30
REMARK   11  A    between atoms: _30  and  _31
REMARK   12  A    between atoms: _34  and  _36
REMARK   13  A    between atoms: _36  and  _37
REMARK   14  A    between atoms: _36  and  _39
REMARK   15  A    between atoms: _39  and  _40
REMARK   16  A    between atoms: _43  and  _45
REMARK   17  A    between atoms: _45  and  _46
REMARK   18  A    between atoms: _45  and  _48
REMARK   19  A    between atoms: _48  and  _49
REMARK   20  A    between atoms: _52  and  _54
REMARK   21  A    between atoms: _54  and  _55
REMARK   22  A    between atoms: _54  and  _57
REMARK   23  A    between atoms: _57  and  _58
REMARK   24  A    between atoms: _61  and  _63
REMARK   25  A    between atoms: _63  and  _64
REMARK   26  A    between atoms: _63  and  _66
REMARK   27  A    between atoms: _66  and  _67
REMARK   28  A    between atoms: _70  and  _72
REMARK   29  A    between atoms: _72  and  _73
REMARK   30  A    between atoms: _75  and  _77
REMARK   31  A    between atoms: _77  and  _78
REMARK   32  A    between atoms: _81  and  _83
REMARK   33  A    between atoms: _83  and  _84
REMARK   34  A    between atoms: _83  and  _86
REMARK   35  A    between atoms: _86  and  _87
REMARK   36  A    between atoms: _90  and  _92
REMARK   37  A    between atoms: _92  and  _93
REMARK   38  A    between atoms: _92  and  _95
REMARK   39  A    between atoms: _95  and  _96
REMARK   40  A    between atoms: _99  and  _101
REMARK   41  A    between atoms: _101  and  _102
REMARK   42  A    between atoms: _101  and  _104
REMARK   43  A    between atoms: _104  and  _105
REMARK   44  A    between atoms: _108  and  _110
REMARK   45  A    between atoms: _110  and  _111
REMARK   46  A    between atoms: _110  and  _113
REMARK   47  A    between atoms: _116  and  _118
REMARK   48  A    between atoms: _118  and  _119
REMARK   49  A    between atoms: _118  and  _121
REMARK   50  A    between atoms: _121  and  _122
REMARK   51  A    between atoms: _125  and  _127
REMARK   52  A    between atoms: _127  and  _128
REMARK   53  A    between atoms: _127  and  _130
REMARK   54  A    between atoms: _130  and  _131
REMARK   55  A    between atoms: _131  and  _132
REMARK   56  A    between atoms: _132  and  _133
REMARK   57  A    between atoms: _133  and  _134
REMARK   58  A    between atoms: _138  and  _140
REMARK   59  A    between atoms: _140  and  _141
REMARK   60  A    between atoms: _140  and  _143
REMARK   61  A    between atoms: _143  and  _144
REMARK   62  A    between atoms: _144  and  _145
REMARK   63  A    between atoms: _147  and  _149
REMARK   64  A    between atoms: _149  and  _150
REMARK   65  A    between atoms: _149  and  _152
REMARK   66  A    between atoms: _152  and  _153
REMARK   67  A    between atoms: _156  and  _158
REMARK   68  A    between atoms: _158  and  _159
REMARK   69  A    between atoms: _161  and  _163
REMARK   70  A    between atoms: _163  and  _164
REMARK   71  A    between atoms: _166  and  _168
REMARK   72  A    between atoms: _168  and  _169
REMARK   73  A    between atoms: _168  and  _171
REMARK   74  A    between atoms: _171  and  _172
REMARK   75  A    between atoms: _175  and  _177
REMARK   76  A    between atoms: _177  and  _178
REMARK   77  A    between atoms: _180  and  _182
REMARK   78  A    between atoms: _182  and  _183
REMARK   79  A    between atoms: _185  and  _187
REMARK   80  A    between atoms: _187  and  _188
REMARK   81  A    between atoms: _187  and  _190
REMARK   82  A    between atoms: _190  and  _191
REMARK   83  A    between atoms: _197  and  _199
REMARK   84  A    between atoms: _199  and  _200
REMARK   85  A    between atoms: _199  and  _202
REMARK   86  A    between atoms: _202  and  _203
REMARK   87  A    between atoms: _206  and  _208
REMARK   88  A    between atoms: _208  and  _209
REMARK   89  A    between atoms: _208  and  _211
REMARK   90  A    between atoms: _214  and  _216
REMARK   91  A    between atoms: _216  and  _217
REMARK   92  A    between atoms: _216  and  _219
REMARK   93  A    between atoms: _219  and  _220
REMARK   94  A    between atoms: _224  and  _225
REMARK   95  A    between atoms: _230  and  _232
REMARK   96  A    between atoms: _232  and  _233
REMARK   97  A    between atoms: _232  and  _235
REMARK   98  A    between atoms: _235  and  _236
REMARK   99  A    between atoms: _240  and  _241
REMARK  100  A    between atoms: _246  and  _248
REMARK  101  A    between atoms: _248  and  _249
REMARK  102  A    between atoms: _252  and  _254
REMARK  103  A    between atoms: _254  and  _255
REMARK  104  A    between atoms: _254  and  _257
REMARK  105  A    between atoms: _257  and  _258
REMARK  106  A    between atoms: _263  and  _265
REMARK  107  A    between atoms: _265  and  _266
REMARK  108  A    between atoms: _265  and  _268
REMARK  109  A    between atoms: _268  and  _269
REMARK  110  A    between atoms: _272  and  _274
REMARK  111  A    between atoms: _274  and  _275
REMARK  112  A    between atoms: _274  and  _277
REMARK  113  A    between atoms: _277  and  _278
REMARK  114  A    between atoms: _281  and  _283
REMARK  115  A    between atoms: _283  and  _284
REMARK  116  A    between atoms: _286  and  _288
REMARK  117  A    between atoms: _288  and  _289
REMARK  118  A    between atoms: _288  and  _291
REMARK  119  A    between atoms: _291  and  _292
REMARK  120  A    between atoms: _292  and  _293
REMARK  121  A    between atoms: _293  and  _294
REMARK  122  A    between atoms: _303  and  _305
REMARK  123  A    between atoms: _305  and  _306
REMARK  124  A    between atoms: _305  and  _308
REMARK  125  A    between atoms: _308  and  _309
REMARK  126  A    between atoms: _309  and  _310
REMARK  127  A    between atoms: _310  and  _311
REMARK  128  A    between atoms: _321  and  _322
REMARK  129  A    between atoms: _327  and  _329
REMARK  130  A    between atoms: _329  and  _330
REMARK  131  A    between atoms: _329  and  _332
REMARK  132  A    between atoms: _332  and  _333
REMARK  133  A    between atoms: _336  and  _338
REMARK  134  A    between atoms: _338  and  _339
REMARK  135  A    between atoms: _338  and  _341
REMARK  136  A    between atoms: _341  and  _342
REMARK  137  A    between atoms: _345  and  _347
REMARK  138  A    between atoms: _347  and  _348
REMARK  139  A    between atoms: _347  and  _350
REMARK  140  A    between atoms: _350  and  _351
REMARK  141  A    between atoms: _354  and  _356
REMARK  142  A    between atoms: _356  and  _357
REMARK  143  A    between atoms: _356  and  _359
REMARK  144  A    between atoms: _359  and  _360
REMARK  145  A    between atoms: _363  and  _365
REMARK  146  A    between atoms: _365  and  _366
REMARK  147  A    between atoms: _365  and  _368
REMARK  148  A    between atoms: _368  and  _369
REMARK  149  A    between atoms: _372  and  _374
REMARK  150  A    between atoms: _374  and  _375
REMARK  151  A    between atoms: _377  and  _379
REMARK  152  A    between atoms: _379  and  _380
REMARK  153  A    between atoms: _383  and  _385
REMARK  154  A    between atoms: _385  and  _386
REMARK  155  A    between atoms: _385  and  _388
REMARK  156  A    between atoms: _388  and  _389
REMARK  157  A    between atoms: _392  and  _394
REMARK  158  A    between atoms: _394  and  _395
REMARK  159  A    between atoms: _394  and  _397
REMARK  160  A    between atoms: _397  and  _398
REMARK  161  A    between atoms: _401  and  _403
REMARK  162  A    between atoms: _403  and  _404
REMARK  163  A    between atoms: _403  and  _406
REMARK  164  A    between atoms: _406  and  _407
REMARK  165  A    between atoms: _410  and  _412
REMARK  166  A    between atoms: _412  and  _413
REMARK  167  A    between atoms: _412  and  _415
REMARK  168  A    between atoms: _418  and  _420
REMARK  169  A    between atoms: _420  and  _421
REMARK  170  A    between atoms: _420  and  _423
REMARK  171  A    between atoms: _423  and  _424
REMARK  172  A    between atoms: _427  and  _429
REMARK  173  A    between atoms: _429  and  _430
REMARK  174  A    between atoms: _429  and  _432
REMARK  175  A    between atoms: _432  and  _433
REMARK  176  A    between atoms: _433  and  _434
REMARK  177  A    between atoms: _434  and  _435
REMARK  178  A    between atoms: _435  and  _436
REMARK  179  A    between atoms: _440  and  _442
REMARK  180  A    between atoms: _442  and  _443
REMARK  181  A    between atoms: _442  and  _445
REMARK  182  A    between atoms: _445  and  _446
REMARK  183  A    between atoms: _446  and  _447
REMARK  184  A    between atoms: _449  and  _451
REMARK  185  A    between atoms: _451  and  _452
REMARK  186  A    between atoms: _451  and  _454
REMARK  187  A    between atoms: _454  and  _455
REMARK  188  A    between atoms: _458  and  _460
REMARK  189  A    between atoms: _460  and  _461
REMARK  190  A    between atoms: _463  and  _465
REMARK  191  A    between atoms: _465  and  _466
REMARK  192  A    between atoms: _468  and  _470
REMARK  193  A    between atoms: _470  and  _471
REMARK  194  A    between atoms: _470  and  _473
REMARK  195  A    between atoms: _473  and  _474
REMARK  196  A    between atoms: _477  and  _479
REMARK  197  A    between atoms: _479  and  _480
REMARK  198  A    between atoms: _482  and  _484
REMARK  199  A    between atoms: _484  and  _485
REMARK  200  A    between atoms: _487  and  _489
REMARK  201  A    between atoms: _489  and  _490
REMARK  202  A    between atoms: _489  and  _492
REMARK  203  A    between atoms: _492  and  _493
REMARK  204  A    between atoms: _496  and  _498
REMARK  205  A    between atoms: _498  and  _499
REMARK  206  A    between atoms: _498  and  _501
REMARK  207  A    between atoms: _504  and  _506
REMARK  208  A    between atoms: _506  and  _507
REMARK  209  A    between atoms: _506  and  _509
REMARK  210  A    between atoms: _509  and  _510
REMARK  211  A    between atoms: _514  and  _515
REMARK  212  A    between atoms: _520  and  _522
REMARK  213  A    between atoms: _522  and  _523
REMARK  214  A    between atoms: _522  and  _525
REMARK  215  A    between atoms: _525  and  _526
REMARK  216  A    between atoms: _530  and  _531
REMARK  217  A    between atoms: _536  and  _538
REMARK  218  A    between atoms: _538  and  _539
REMARK  219  A    between atoms: _542  and  _544
REMARK  220  A    between atoms: _544  and  _545
REMARK  221  A    between atoms: _544  and  _547
REMARK  222  A    between atoms: _547  and  _548
REMARK  223  A    between atoms: _553  and  _555
REMARK  224  A    between atoms: _555  and  _556
REMARK  225  A    between atoms: _555  and  _558
REMARK  226  A    between atoms: _558  and  _559
REMARK  227  A    between atoms: _562  and  _564
REMARK  228  A    between atoms: _564  and  _565
REMARK  229  A    between atoms: _564  and  _567
REMARK  230  A    between atoms: _567  and  _568
REMARK  231  A    between atoms: _571  and  _573
REMARK  232  A    between atoms: _573  and  _574
REMARK  233  A    between atoms: _576  and  _578
REMARK  234  A    between atoms: _578  and  _579
REMARK  235  A    between atoms: _578  and  _581
REMARK  236  A    between atoms: _581  and  _582
REMARK  237  A    between atoms: _582  and  _583
REMARK  238  A    between atoms: _583  and  _584
REMARK                            x       y       z     vdW  Elec       q    Type
REMARK                         _______ _______ _______ _____ _____    ______ ____
ROOT
ATOM      1  O   HOH     1      30.532 -41.663  11.486  0.00  0.00    +0.000 OA
ENDROOT
TORSDOF 0
REMARK  Name = ../refined-set-2016/2fle/2fle_pocket.pdb
REMARK  238 active torsions:
REMARK  status: ('A' for Active; 'I' for Inactive)
REMARK    1  A    between atoms: _1  and  _3
REMARK    2  A    between atoms: _3  and  _4
REMARK    3  A    between atoms: _3  and  _6
REMARK    4  A    between atoms: _6  and  _7
REMARK    5  A    between atoms: _7  and  _8
REMARK    6  A    between atoms: _8  and  _9
REMARK    7  A    between atoms: _19  and  _20
REMARK    8  A    between atoms: _25  and  _27
REMARK    9  A    between atoms: _27  and  _28
REMARK   10  A    between atoms: _27  and  _30
REMARK   11  A    between atoms: _30  and  _31
REMARK   12  A    between atoms: _34  and  _36
REMARK   13  A    between atoms: _36  and  _37
REMARK   14  A    between atoms: _36  and  _39
REMARK   15  A    between atoms: _39  and  _40
REMARK   16  A    between atoms: _43  and  _45
REMARK   17  A    between atoms: _45  and  _46
REMARK   18  A    between atoms: _45  and  _48
REMARK   19  A    between atoms: _48  and  _49
REMARK   20  A    between atoms: _52  and  _54
REMARK   21  A    between atoms: _54  and  _55
REMARK   22  A    between atoms: _54  and  _57
REMARK   23  A    between atoms: _57  and  _58
REMARK   24  A    between atoms: _61  and  _63
REMARK   25  A    between atoms: _63  and  _64
REMARK   26  A    between atoms: _63  and  _66
REMARK   27  A    between atoms: _66  and  _67
REMARK   28  A    between atoms: _70  and  _72
REMARK   29  A    between atoms: _72  and  _73
REMARK   30  A    between atoms: _75  and  _77
REMARK   31  A    between atoms: _77  and  _78
REMARK   32  A    between atoms: _81  and  _83
REMARK   33  A    between atoms: _83  and  _84
REMARK   34  A    between atoms: _83  and  _86
REMARK   35  A    between atoms: _86  and  _87
REMARK   36  A    between atoms: _90  and  _92
REMARK   37  A    between atoms: _92  and  _93
REMARK   38  A    between atoms: _92  and  _95
REMARK   39  A    between atoms: _95  and  _96
REMARK   40  A    between atoms: _99  and  _101
REMARK   41  A    between atoms: _101  and  _102
REMARK   42  A    between atoms: _101  and  _104
REMARK   43  A    between atoms: _104  and  _105
REMARK   44  A    between atoms: _108  and  _110
REMARK   45  A    between atoms: _110  and  _111
REMARK   46  A    between atoms: _110  and  _113
REMARK   47  A    between atoms: _116  and  _118
REMARK   48  A    between atoms: _118  and  _119
REMARK   49  A    between atoms: _118  and  _121
REMARK   50  A    between atoms: _121  and  _122
REMARK   51  A    between atoms: _125  and  _127
REMARK   52  A    between atoms: _127  and  _128
REMARK   53  A    between atoms: _127  and  _130
REMARK   54  A    between atoms: _130  and  _131
REMARK   55  A    between atoms: _131  and  _132
REMARK   56  A    between atoms: _132  and  _133
REMARK   57  A    between atoms: _133  and  _134
REMARK   58  A    between atoms: _138  and  _140
REMARK   59  A    between atoms: _140  and  _141
REMARK   60  A    between atoms: _140  and  _143
REMARK   61  A    between atoms: _143  and  _144
REMARK   62  A    between atoms: _144  and  _145
REMARK   63  A    between atoms: _147  and  _149
REMARK   64  A    between atoms: _149  and  _150
REMARK   65  A    between atoms: _149  and  _152
REMARK   66  A    between atoms: _152  and  _153
REMARK   67  A    between atoms: _156  and  _158
REMARK   68  A    between atoms: _158  and  _159
REMARK   69  A    between atoms: _161  and  _163
REMARK   70  A    between atoms: _163  and  _164
REMARK   71  A    between atoms: _166  and  _168
REMARK   72  A    between atoms: _168  and  _169
REMARK   73  A    between atoms: _168  and  _171
REMARK   74  A    between atoms: _171  and  _172
REMARK   75  A    between atoms: _175  and  _177
REMARK   76  A    between atoms: _177  and  _178
REMARK   77  A    between atoms: _180  and  _182
REMARK   78  A    between atoms: _182  and  _183
REMARK   79  A    between atoms: _185  and  _187
REMARK   80  A    between atoms: _187  and  _188
REMARK   81  A    between atoms: _187  and  _190
REMARK   82  A    between atoms: _190  and  _191
REMARK   83  A    between atoms: _197  and  _199
REMARK   84  A    between atoms: _199  and  _200
REMARK   85  A    between atoms: _199  and  _202
REMARK   86  A    between atoms: _202  and  _203
REMARK   87  A    between atoms: _206  and  _208
REMARK   88  A    between atoms: _208  and  _209
REMARK   89  A    between atoms: _208  and  _211
REMARK   90  A    between atoms: _214  and  _216
REMARK   91  A    between atoms: _216  and  _217
REMARK   92  A    between atoms: _216  and  _219
REMARK   93  A    between atoms: _219  and  _220
REMARK   94  A    between atoms: _224  and  _225
REMARK   95  A    between atoms: _230  and  _232
REMARK   96  A    between atoms: _232  and  _233
REMARK   97  A    between atoms: _232  and  _235
REMARK   98  A    between atoms: _235  and  _236
REMARK   99  A    between atoms: _240  and  _241
REMARK  100  A    between atoms: _246  and  _248
REMARK  101  A    between atoms: _248  and  _249
REMARK  102  A    between atoms: _252  and  _254
REMARK  103  A    between atoms: _254  and  _255
REMARK  104  A    between atoms: _254  and  _257
REMARK  105  A    between atoms: _257  and  _258
REMARK  106  A    between atoms: _263  and  _265
REMARK  107  A    between atoms: _265  and  _266
REMARK  108  A    between atoms: _265  and  _268
REMARK  109  A    between atoms: _268  and  _269
REMARK  110  A    between atoms: _272  and  _274
REMARK  111  A    between atoms: _274  and  _275
REMARK  112  A    between atoms: _274  and  _277
REMARK  113  A    between atoms: _277  and  _278
REMARK  114  A    between atoms: _281  and  _283
REMARK  115  A    between atoms: _283  and  _284
REMARK  116  A    between atoms: _286  and  _288
REMARK  117  A    between atoms: _288  and  _289
REMARK  118  A    between atoms: _288  and  _291
REMARK  119  A    between atoms: _291  and  _292
REMARK  120  A    between atoms: _292  and  _293
REMARK  121  A    between atoms: _293  and  _294
REMARK  122  A    between atoms: _303  and  _305
REMARK  123  A    between atoms: _305  and  _306
REMARK  124  A    between atoms: _305  and  _308
REMARK  125  A    between atoms: _308  and  _309
REMARK  126  A    between atoms: _309  and  _310
REMARK  127  A    between atoms: _310  and  _311
REMARK  128  A    between atoms: _321  and  _322
REMARK  129  A    between atoms: _327  and  _329
REMARK  130  A    between atoms: _329  and  _330
REMARK  131  A    between atoms: _329  and  _332
REMARK  132  A    between atoms: _332  and  _333
REMARK  133  A    between atoms: _336  and  _338
REMARK  134  A    between atoms: _338  and  _339
REMARK  135  A    between atoms: _338  and  _341
REMARK  136  A    between atoms: _341  and  _342
REMARK  137  A    between atoms: _345  and  _347
REMARK  138  A    between atoms: _347  and  _348
REMARK  139  A    between atoms: _347  and  _350
REMARK  140  A    between atoms: _350  and  _351
REMARK  141  A    between atoms: _354  and  _356
REMARK  142  A    between atoms: _356  and  _357
REMARK  143  A    between atoms: _356  and  _359
REMARK  144  A    between atoms: _359  and  _360
REMARK  145  A    between atoms: _363  and  _365
REMARK  146  A    between atoms: _365  and  _366
REMARK  147  A    between atoms: _365  and  _368
REMARK  148  A    between atoms: _368  and  _369
REMARK  149  A    between atoms: _372  and  _374
REMARK  150  A    between atoms: _374  and  _375
REMARK  151  A    between atoms: _377  and  _379
REMARK  152  A    between atoms: _379  and  _380
REMARK  153  A    between atoms: _383  and  _385
REMARK  154  A    between atoms: _385  and  _386
REMARK  155  A    between atoms: _385  and  _388
REMARK  156  A    between atoms: _388  and  _389
REMARK  157  A    between atoms: _392  and  _394
REMARK  158  A    between atoms: _394  and  _395
REMARK  159  A    between atoms: _394  and  _397
REMARK  160  A    between atoms: _397  and  _398
REMARK  161  A    between atoms: _401  and  _403
REMARK  162  A    between atoms: _403  and  _404
REMARK  163  A    between atoms: _403  and  _406
REMARK  164  A    between atoms: _406  and  _407
REMARK  165  A    between atoms: _410  and  _412
REMARK  166  A    between atoms: _412  and  _413
REMARK  167  A    between atoms: _412  and  _415
REMARK  168  A    between atoms: _418  and  _420
REMARK  169  A    between atoms: _420  and  _421
REMARK  170  A    between atoms: _420  and  _423
REMARK  171  A    between atoms: _423  and  _424
REMARK  172  A    between atoms: _427  and  _429
REMARK  173  A    between atoms: _429  and  _430
REMARK  174  A    between atoms: _429  and  _432
REMARK  175  A    between atoms: _432  and  _433
REMARK  176  A    between atoms: _433  and  _434
REMARK  177  A    between atoms: _434  and  _435
REMARK  178  A    between atoms: _435  and  _436
REMARK  179  A    between atoms: _440  and  _442
REMARK  180  A    between atoms: _442  and  _443
REMARK  181  A    between atoms: _442  and  _445
REMARK  182  A    between atoms: _445  and  _446
REMARK  183  A    between atoms: _446  and  _447
REMARK  184  A    between atoms: _449  and  _451
REMARK  185  A    between atoms: _451  and  _452
REMARK  186  A    between atoms: _451  and  _454
REMARK  187  A    between atoms: _454  and  _455
REMARK  188  A    between atoms: _458  and  _460
REMARK  189  A    between atoms: _460  and  _461
REMARK  190  A    between atoms: _463  and  _465
REMARK  191  A    between atoms: _465  and  _466
REMARK  192  A    between atoms: _468  and  _470
REMARK  193  A    between atoms: _470  and  _471
REMARK  194  A    between atoms: _470  and  _473
REMARK  195  A    between atoms: _473  and  _474
REMARK  196  A    between atoms: _477  and  _479
REMARK  197  A    between atoms: _479  and  _480
REMARK  198  A    between atoms: _482  and  _484
REMARK  199  A    between atoms: _484  and  _485
REMARK  200  A    between atoms: _487  and  _489
REMARK  201  A    between atoms: _489  and  _490
REMARK  202  A    between atoms: _489  and  _492
REMARK  203  A    between atoms: _492  and  _493
REMARK  204  A    between atoms: _496  and  _498
REMARK  205  A    between atoms: _498  and  _499
REMARK  206  A    between atoms: _498  and  _501
REMARK  207  A    between atoms: _504  and  _506
REMARK  208  A    between atoms: _506  and  _507
REMARK  209  A    between atoms: _506  and  _509
REMARK  210  A    between atoms: _509  and  _510
REMARK  211  A    between atoms: _514  and  _515
REMARK  212  A    between atoms: _520  and  _522
REMARK  213  A    between atoms: _522  and  _523
REMARK  214  A    between atoms: _522  and  _525
REMARK  215  A    between atoms: _525  and  _526
REMARK  216  A    between atoms: _530  and  _531
REMARK  217  A    between atoms: _536  and  _538
REMARK  218  A    between atoms: _538  and  _539
REMARK  219  A    between atoms: _542  and  _544
REMARK  220  A    between atoms: _544  and  _545
REMARK  221  A    between atoms: _544  and  _547
REMARK  222  A    between atoms: _547  and  _548
REMARK  223  A    between atoms: _553  and  _555
REMARK  224  A    between atoms: _555  and  _556
REMARK  225  A    between atoms: _555  and  _558
REMARK  226  A    between atoms: _558  and  _559
REMARK  227  A    between atoms: _562  and  _564
REMARK  228  A    between atoms: _564  and  _565
REMARK  229  A    between atoms: _564  and  _567
REMARK  230  A    between atoms: _567  and  _568
REMARK  231  A    between atoms: _571  and  _573
REMARK  232  A    between atoms: _573  and  _574
REMARK  233  A    between atoms: _576  and  _578
REMARK  234  A    between atoms: _578  and  _579
REMARK  235  A    between atoms: _578  and  _581
REMARK  236  A    between atoms: _581  and  _582
REMARK  237  A    between atoms: _582  and  _583
REMARK  238  A    between atoms: _583  and  _584
REMARK                            x       y       z     vdW  Elec       q    Type
REMARK                         _______ _______ _______ _____ _____    ______ ____
ROOT
ATOM      1  O   HOH     1       9.033 -40.681  18.578  0.00  0.00    +0.000 OA
ENDROOT
TORSDOF 0
REMARK  Name = ../refined-set-2016/2fle/2fle_pocket.pdb
REMARK  238 active torsions:
REMARK  status: ('A' for Active; 'I' for Inactive)
REMARK    1  A    between atoms: _1  and  _3
REMARK    2  A    between atoms: _3  and  _4
REMARK    3  A    between atoms: _3  and  _6
REMARK    4  A    between atoms: _6  and  _7
REMARK    5  A    between atoms: _7  and  _8
REMARK    6  A    between atoms: _8  and  _9
REMARK    7  A    between atoms: _19  and  _20
REMARK    8  A    between atoms: _25  and  _27
REMARK    9  A    between atoms: _27  and  _28
REMARK   10  A    between atoms: _27  and  _30
REMARK   11  A    between atoms: _30  and  _31
REMARK   12  A    between atoms: _34  and  _36
REMARK   13  A    between atoms: _36  and  _37
REMARK   14  A    between atoms: _36  and  _39
REMARK   15  A    between atoms: _39  and  _40
REMARK   16  A    between atoms: _43  and  _45
REMARK   17  A    between atoms: _45  and  _46
REMARK   18  A    between atoms: _45  and  _48
REMARK   19  A    between atoms: _48  and  _49
REMARK   20  A    between atoms: _52  and  _54
REMARK   21  A    between atoms: _54  and  _55
REMARK   22  A    between atoms: _54  and  _57
REMARK   23  A    between atoms: _57  and  _58
REMARK   24  A    between atoms: _61  and  _63
REMARK   25  A    between atoms: _63  and  _64
REMARK   26  A    between atoms: _63  and  _66
REMARK   27  A    between atoms: _66  and  _67
REMARK   28  A    between atoms: _70  and  _72
REMARK   29  A    between atoms: _72  and  _73
REMARK   30  A    between atoms: _75  and  _77
REMARK   31  A    between atoms: _77  and  _78
REMARK   32  A    between atoms: _81  and  _83
REMARK   33  A    between atoms: _83  and  _84
REMARK   34  A    between atoms: _83  and  _86
REMARK   35  A    between atoms: _86  and  _87
REMARK   36  A    between atoms: _90  and  _92
REMARK   37  A    between atoms: _92  and  _93
REMARK   38  A    between atoms: _92  and  _95
REMARK   39  A    between atoms: _95  and  _96
REMARK   40  A    between atoms: _99  and  _101
REMARK   41  A    between atoms: _101  and  _102
REMARK   42  A    between atoms: _101  and  _104
REMARK   43  A    between atoms: _104  and  _105
REMARK   44  A    between atoms: _108  and  _110
REMARK   45  A    between atoms: _110  and  _111
REMARK   46  A    between atoms: _110  and  _113
REMARK   47  A    between atoms: _116  and  _118
REMARK   48  A    between atoms: _118  and  _119
REMARK   49  A    between atoms: _118  and  _121
REMARK   50  A    between atoms: _121  and  _122
REMARK   51  A    between atoms: _125  and  _127
REMARK   52  A    between atoms: _127  and  _128
REMARK   53  A    between atoms: _127  and  _130
REMARK   54  A    between atoms: _130  and  _131
REMARK   55  A    between atoms: _131  and  _132
REMARK   56  A    between atoms: _132  and  _133
REMARK   57  A    between atoms: _133  and  _134
REMARK   58  A    between atoms: _138  and  _140
REMARK   59  A    between atoms: _140  and  _141
REMARK   60  A    between atoms: _140  and  _143
REMARK   61  A    between atoms: _143  and  _144
REMARK   62  A    between atoms: _144  and  _145
REMARK   63  A    between atoms: _147  and  _149
REMARK   64  A    between atoms: _149  and  _150
REMARK   65  A    between atoms: _149  and  _152
REMARK   66  A    between atoms: _152  and  _153
REMARK   67  A    between atoms: _156  and  _158
REMARK   68  A    between atoms: _158  and  _159
REMARK   69  A    between atoms: _161  and  _163
REMARK   70  A    between atoms: _163  and  _164
REMARK   71  A    between atoms: _166  and  _168
REMARK   72  A    between atoms: _168  and  _169
REMARK   73  A    between atoms: _168  and  _171
REMARK   74  A    between atoms: _171  and  _172
REMARK   75  A    between atoms: _175  and  _177
REMARK   76  A    between atoms: _177  and  _178
REMARK   77  A    between atoms: _180  and  _182
REMARK   78  A    between atoms: _182  and  _183
REMARK   79  A    between atoms: _185  and  _187
REMARK   80  A    between atoms: _187  and  _188
REMARK   81  A    between atoms: _187  and  _190
REMARK   82  A    between atoms: _190  and  _191
REMARK   83  A    between atoms: _197  and  _199
REMARK   84  A    between atoms: _199  and  _200
REMARK   85  A    between atoms: _199  and  _202
REMARK   86  A    between atoms: _202  and  _203
REMARK   87  A    between atoms: _206  and  _208
REMARK   88  A    between atoms: _208  and  _209
REMARK   89  A    between atoms: _208  and  _211
REMARK   90  A    between atoms: _214  and  _216
REMARK   91  A    between atoms: _216  and  _217
REMARK   92  A    between atoms: _216  and  _219
REMARK   93  A    between atoms: _219  and  _220
REMARK   94  A    between atoms: _224  and  _225
REMARK   95  A    between atoms: _230  and  _232
REMARK   96  A    between atoms: _232  and  _233
REMARK   97  A    between atoms: _232  and  _235
REMARK   98  A    between atoms: _235  and  _236
REMARK   99  A    between atoms: _240  and  _241
REMARK  100  A    between atoms: _246  and  _248
REMARK  101  A    between atoms: _248  and  _249
REMARK  102  A    between atoms: _252  and  _254
REMARK  103  A    between atoms: _254  and  _255
REMARK  104  A    between atoms: _254  and  _257
REMARK  105  A    between atoms: _257  and  _258
REMARK  106  A    between atoms: _263  and  _265
REMARK  107  A    between atoms: _265  and  _266
REMARK  108  A    between atoms: _265  and  _268
REMARK  109  A    between atoms: _268  and  _269
REMARK  110  A    between atoms: _272  and  _274
REMARK  111  A    between atoms: _274  and  _275
REMARK  112  A    between atoms: _274  and  _277
REMARK  113  A    between atoms: _277  and  _278
REMARK  114  A    between atoms: _281  and  _283
REMARK  115  A    between atoms: _283  and  _284
REMARK  116  A    between atoms: _286  and  _288
REMARK  117  A    between atoms: _288  and  _289
REMARK  118  A    between atoms: _288  and  _291
REMARK  119  A    between atoms: _291  and  _292
REMARK  120  A    between atoms: _292  and  _293
REMARK  121  A    between atoms: _293  and  _294
REMARK  122  A    between atoms: _303  and  _305
REMARK  123  A    between atoms: _305  and  _306
REMARK  124  A    between atoms: _305  and  _308
REMARK  125  A    between atoms: _308  and  _309
REMARK  126  A    between atoms: _309  and  _310
REMARK  127  A    between atoms: _310  and  _311
REMARK  128  A    between atoms: _321  and  _322
REMARK  129  A    between atoms: _327  and  _329
REMARK  130  A    between atoms: _329  and  _330
REMARK  131  A    between atoms: _329  and  _332
REMARK  132  A    between atoms: _332  and  _333
REMARK  133  A    between atoms: _336  and  _338
REMARK  134  A    between atoms: _338  and  _339
REMARK  135  A    between atoms: _338  and  _341
REMARK  136  A    between atoms: _341  and  _342
REMARK  137  A    between atoms: _345  and  _347
REMARK  138  A    between atoms: _347  and  _348
REMARK  139  A    between atoms: _347  and  _350
REMARK  140  A    between atoms: _350  and  _351
REMARK  141  A    between atoms: _354  and  _356
REMARK  142  A    between atoms: _356  and  _357
REMARK  143  A    between atoms: _356  and  _359
REMARK  144  A    between atoms: _359  and  _360
REMARK  145  A    between atoms: _363  and  _365
REMARK  146  A    between atoms: _365  and  _366
REMARK  147  A    between atoms: _365  and  _368
REMARK  148  A    between atoms: _368  and  _369
REMARK  149  A    between atoms: _372  and  _374
REMARK  150  A    between atoms: _374  and  _375
REMARK  151  A    between atoms: _377  and  _379
REMARK  152  A    between atoms: _379  and  _380
REMARK  153  A    between atoms: _383  and  _385
REMARK  154  A    between atoms: _385  and  _386
REMARK  155  A    between atoms: _385  and  _388
REMARK  156  A    between atoms: _388  and  _389
REMARK  157  A    between atoms: _392  and  _394
REMARK  158  A    between atoms: _394  and  _395
REMARK  159  A    between atoms: _394  and  _397
REMARK  160  A    between atoms: _397  and  _398
REMARK  161  A    between atoms: _401  and  _403
REMARK  162  A    between atoms: _403  and  _404
REMARK  163  A    between atoms: _403  and  _406
REMARK  164  A    between atoms: _406  and  _407
REMARK  165  A    between atoms: _410  and  _412
REMARK  166  A    between atoms: _412  and  _413
REMARK  167  A    between atoms: _412  and  _415
REMARK  168  A    between atoms: _418  and  _420
REMARK  169  A    between atoms: _420  and  _421
REMARK  170  A    between atoms: _420  and  _423
REMARK  171  A    between atoms: _423  and  _424
REMARK  172  A    between atoms: _427  and  _429
REMARK  173  A    between atoms: _429  and  _430
REMARK  174  A    between atoms: _429  and  _432
REMARK  175  A    between atoms: _432  and  _433
REMARK  176  A    between atoms: _433  and  _434
REMARK  177  A    between atoms: _434  and  _435
REMARK  178  A    between atoms: _435  and  _436
REMARK  179  A    between atoms: _440  and  _442
REMARK  180  A    between atoms: _442  and  _443
REMARK  181  A    between atoms: _442  and  _445
REMARK  182  A    between atoms: _445  and  _446
REMARK  183  A    between atoms: _446  and  _447
REMARK  184  A    between atoms: _449  and  _451
REMARK  185  A    between atoms: _451  and  _452
REMARK  186  A    between atoms: _451  and  _454
REMARK  187  A    between atoms: _454  and  _455
REMARK  188  A    between atoms: _458  and  _460
REMARK  189  A    between atoms: _460  and  _461
REMARK  190  A    between atoms: _463  and  _465
REMARK  191  A    between atoms: _465  and  _466
REMARK  192  A    between atoms: _468  and  _470
REMARK  193  A    between atoms: _470  and  _471
REMARK  194  A    between atoms: _470  and  _473
REMARK  195  A    between atoms: _473  and  _474
REMARK  196  A    between atoms: _477  and  _479
REMARK  197  A    between atoms: _479  and  _480
REMARK  198  A    between atoms: _482  and  _484
REMARK  199  A    between atoms: _484  and  _485
REMARK  200  A    between atoms: _487  and  _489
REMARK  201  A    between atoms: _489  and  _490
REMARK  202  A    between atoms: _489  and  _492
REMARK  203  A    between atoms: _492  and  _493
REMARK  204  A    between atoms: _496  and  _498
REMARK  205  A    between atoms: _498  and  _499
REMARK  206  A    between atoms: _498  and  _501
REMARK  207  A    between atoms: _504  and  _506
REMARK  208  A    between atoms: _506  and  _507
REMARK  209  A    between atoms: _506  and  _509
REMARK  210  A    between atoms: _509  and  _510
REMARK  211  A    between atoms: _514  and  _515
REMARK  212  A    between atoms: _520  and  _522
REMARK  213  A    between atoms: _522  and  _523
REMARK  214  A    between atoms: _522  and  _525
REMARK  215  A    between atoms: _525  and  _526
REMARK  216  A    between atoms: _530  and  _531
REMARK  217  A    between atoms: _536  and  _538
REMARK  218  A    between atoms: _538  and  _539
REMARK  219  A    between atoms: _542  and  _544
REMARK  220  A    between atoms: _544  and  _545
REMARK  221  A    between atoms: _544  and  _547
REMARK  222  A    between atoms: _547  and  _548
REMARK  223  A    between atoms: _553  and  _555
REMARK  224  A    between atoms: _555  and  _556
REMARK  225  A    between atoms: _555  and  _558
REMARK  226  A    between atoms: _558  and  _559
REMARK  227  A    between atoms: _562  and  _564
REMARK  228  A    between atoms: _564  and  _565
REMARK  229  A    between atoms: _564  and  _567
REMARK  230  A    between atoms: _567  and  _568
REMARK  231  A    between atoms: _571  and  _573
REMARK  232  A    between atoms: _573  and  _574
REMARK  233  A    between atoms: _576  and  _578
REMARK  234  A    between atoms: _578  and  _579
REMARK  235  A    between atoms: _578  and  _581
REMARK  236  A    between atoms: _581  and  _582
REMARK  237  A    between atoms: _582  and  _583
REMARK  238  A    between atoms: _583  and  _584
REMARK                            x       y       z     vdW  Elec       q    Type
REMARK                         _______ _______ _______ _____ _____    ______ ____
ROOT
ATOM      1  O   HOH     1      29.919 -39.213  10.159  0.00  0.00    +0.000 OA
ENDROOT
TORSDOF 0
REMARK  Name = ../refined-set-2016/2fle/2fle_pocket.pdb
REMARK  238 active torsions:
REMARK  status: ('A' for Active; 'I' for Inactive)
REMARK    1  A    between atoms: _1  and  _3
REMARK    2  A    between atoms: _3  and  _4
REMARK    3  A    between atoms: _3  and  _6
REMARK    4  A    between atoms: _6  and  _7
REMARK    5  A    between atoms: _7  and  _8
REMARK    6  A    between atoms: _8  and  _9
REMARK    7  A    between atoms: _19  and  _20
REMARK    8  A    between atoms: _25  and  _27
REMARK    9  A    between atoms: _27  and  _28
REMARK   10  A    between atoms: _27  and  _30
REMARK   11  A    between atoms: _30  and  _31
REMARK   12  A    between atoms: _34  and  _36
REMARK   13  A    between atoms: _36  and  _37
REMARK   14  A    between atoms: _36  and  _39
REMARK   15  A    between atoms: _39  and  _40
REMARK   16  A    between atoms: _43  and  _45
REMARK   17  A    between atoms: _45  and  _46
REMARK   18  A    between atoms: _45  and  _48
REMARK   19  A    between atoms: _48  and  _49
REMARK   20  A    between atoms: _52  and  _54
REMARK   21  A    between atoms: _54  and  _55
REMARK   22  A    between atoms: _54  and  _57
REMARK   23  A    between atoms: _57  and  _58
REMARK   24  A    between atoms: _61  and  _63
REMARK   25  A    between atoms: _63  and  _64
REMARK   26  A    between atoms: _63  and  _66
REMARK   27  A    between atoms: _66  and  _67
REMARK   28  A    between atoms: _70  and  _72
REMARK   29  A    between atoms: _72  and  _73
REMARK   30  A    between atoms: _75  and  _77
REMARK   31  A    between atoms: _77  and  _78
REMARK   32  A    between atoms: _81  and  _83
REMARK   33  A    between atoms: _83  and  _84
REMARK   34  A    between atoms: _83  and  _86
REMARK   35  A    between atoms: _86  and  _87
REMARK   36  A    between atoms: _90  and  _92
REMARK   37  A    between atoms: _92  and  _93
REMARK   38  A    between atoms: _92  and  _95
REMARK   39  A    between atoms: _95  and  _96
REMARK   40  A    between atoms: _99  and  _101
REMARK   41  A    between atoms: _101  and  _102
REMARK   42  A    between atoms: _101  and  _104
REMARK   43  A    between atoms: _104  and  _105
REMARK   44  A    between atoms: _108  and  _110
REMARK   45  A    between atoms: _110  and  _111
REMARK   46  A    between atoms: _110  and  _113
REMARK   47  A    between atoms: _116  and  _118
REMARK   48  A    between atoms: _118  and  _119
REMARK   49  A    between atoms: _118  and  _121
REMARK   50  A    between atoms: _121  and  _122
REMARK   51  A    between atoms: _125  and  _127
REMARK   52  A    between atoms: _127  and  _128
REMARK   53  A    between atoms: _127  and  _130
REMARK   54  A    between atoms: _130  and  _131
REMARK   55  A    between atoms: _131  and  _132
REMARK   56  A    between atoms: _132  and  _133
REMARK   57  A    between atoms: _133  and  _134
REMARK   58  A    between atoms: _138  and  _140
REMARK   59  A    between atoms: _140  and  _141
REMARK   60  A    between atoms: _140  and  _143
REMARK   61  A    between atoms: _143  and  _144
REMARK   62  A    between atoms: _144  and  _145
REMARK   63  A    between atoms: _147  and  _149
REMARK   64  A    between atoms: _149  and  _150
REMARK   65  A    between atoms: _149  and  _152
REMARK   66  A    between atoms: _152  and  _153
REMARK   67  A    between atoms: _156  and  _158
REMARK   68  A    between atoms: _158  and  _159
REMARK   69  A    between atoms: _161  and  _163
REMARK   70  A    between atoms: _163  and  _164
REMARK   71  A    between atoms: _166  and  _168
REMARK   72  A    between atoms: _168  and  _169
REMARK   73  A    between atoms: _168  and  _171
REMARK   74  A    between atoms: _171  and  _172
REMARK   75  A    between atoms: _175  and  _177
REMARK   76  A    between atoms: _177  and  _178
REMARK   77  A    between atoms: _180  and  _182
REMARK   78  A    between atoms: _182  and  _183
REMARK   79  A    between atoms: _185  and  _187
REMARK   80  A    between atoms: _187  and  _188
REMARK   81  A    between atoms: _187  and  _190
REMARK   82  A    between atoms: _190  and  _191
REMARK   83  A    between atoms: _197  and  _199
REMARK   84  A    between atoms: _199  and  _200
REMARK   85  A    between atoms: _199  and  _202
REMARK   86  A    between atoms: _202  and  _203
REMARK   87  A    between atoms: _206  and  _208
REMARK   88  A    between atoms: _208  and  _209
REMARK   89  A    between atoms: _208  and  _211
REMARK   90  A    between atoms: _214  and  _216
REMARK   91  A    between atoms: _216  and  _217
REMARK   92  A    between atoms: _216  and  _219
REMARK   93  A    between atoms: _219  and  _220
REMARK   94  A    between atoms: _224  and  _225
REMARK   95  A    between atoms: _230  and  _232
REMARK   96  A    between atoms: _232  and  _233
REMARK   97  A    between atoms: _232  and  _235
REMARK   98  A    between atoms: _235  and  _236
REMARK   99  A    between atoms: _240  and  _241
REMARK  100  A    between atoms: _246  and  _248
REMARK  101  A    between atoms: _248  and  _249
REMARK  102  A    between atoms: _252  and  _254
REMARK  103  A    between atoms: _254  and  _255
REMARK  104  A    between atoms: _254  and  _257
REMARK  105  A    between atoms: _257  and  _258
REMARK  106  A    between atoms: _263  and  _265
REMARK  107  A    between atoms: _265  and  _266
REMARK  108  A    between atoms: _265  and  _268
REMARK  109  A    between atoms: _268  and  _269
REMARK  110  A    between atoms: _272  and  _274
REMARK  111  A    between atoms: _274  and  _275
REMARK  112  A    between atoms: _274  and  _277
REMARK  113  A    between atoms: _277  and  _278
REMARK  114  A    between atoms: _281  and  _283
REMARK  115  A    between atoms: _283  and  _284
REMARK  116  A    between atoms: _286  and  _288
REMARK  117  A    between atoms: _288  and  _289
REMARK  118  A    between atoms: _288  and  _291
REMARK  119  A    between atoms: _291  and  _292
REMARK  120  A    between atoms: _292  and  _293
REMARK  121  A    between atoms: _293  and  _294
REMARK  122  A    between atoms: _303  and  _305
REMARK  123  A    between atoms: _305  and  _306
REMARK  124  A    between atoms: _305  and  _308
REMARK  125  A    between atoms: _308  and  _309
REMARK  126  A    between atoms: _309  and  _310
REMARK  127  A    between atoms: _310  and  _311
REMARK  128  A    between atoms: _321  and  _322
REMARK  129  A    between atoms: _327  and  _329
REMARK  130  A    between atoms: _329  and  _330
REMARK  131  A    between atoms: _329  and  _332
REMARK  132  A    between atoms: _332  and  _333
REMARK  133  A    between atoms: _336  and  _338
REMARK  134  A    between atoms: _338  and  _339
REMARK  135  A    between atoms: _338  and  _341
REMARK  136  A    between atoms: _341  and  _342
REMARK  137  A    between atoms: _345  and  _347
REMARK  138  A    between atoms: _347  and  _348
REMARK  139  A    between atoms: _347  and  _350
REMARK  140  A    between atoms: _350  and  _351
REMARK  141  A    between atoms: _354  and  _356
REMARK  142  A    between atoms: _356  and  _357
REMARK  143  A    between atoms: _356  and  _359
REMARK  144  A    between atoms: _359  and  _360
REMARK  145  A    between atoms: _363  and  _365
REMARK  146  A    between atoms: _365  and  _366
REMARK  147  A    between atoms: _365  and  _368
REMARK  148  A    between atoms: _368  and  _369
REMARK  149  A    between atoms: _372  and  _374
REMARK  150  A    between atoms: _374  and  _375
REMARK  151  A    between atoms: _377  and  _379
REMARK  152  A    between atoms: _379  and  _380
REMARK  153  A    between atoms: _383  and  _385
REMARK  154  A    between atoms: _385  and  _386
REMARK  155  A    between atoms: _385  and  _388
REMARK  156  A    between atoms: _388  and  _389
REMARK  157  A    between atoms: _392  and  _394
REMARK  158  A    between atoms: _394  and  _395
REMARK  159  A    between atoms: _394  and  _397
REMARK  160  A    between atoms: _397  and  _398
REMARK  161  A    between atoms: _401  and  _403
REMARK  162  A    between atoms: _403  and  _404
REMARK  163  A    between atoms: _403  and  _406
REMARK  164  A    between atoms: _406  and  _407
REMARK  165  A    between atoms: _410  and  _412
REMARK  166  A    between atoms: _412  and  _413
REMARK  167  A    between atoms: _412  and  _415
REMARK  168  A    between atoms: _418  and  _420
REMARK  169  A    between atoms: _420  and  _421
REMARK  170  A    between atoms: _420  and  _423
REMARK  171  A    between atoms: _423  and  _424
REMARK  172  A    between atoms: _427  and  _429
REMARK  173  A    between atoms: _429  and  _430
REMARK  174  A    between atoms: _429  and  _432
REMARK  175  A    between atoms: _432  and  _433
REMARK  176  A    between atoms: _433  and  _434
REMARK  177  A    between atoms: _434  and  _435
REMARK  178  A    between atoms: _435  and  _436
REMARK  179  A    between atoms: _440  and  _442
REMARK  180  A    between atoms: _442  and  _443
REMARK  181  A    between atoms: _442  and  _445
REMARK  182  A    between atoms: _445  and  _446
REMARK  183  A    between atoms: _446  and  _447
REMARK  184  A    between atoms: _449  and  _451
REMARK  185  A    between atoms: _451  and  _452
REMARK  186  A    between atoms: _451  and  _454
REMARK  187  A    between atoms: _454  and  _455
REMARK  188  A    between atoms: _458  and  _460
REMARK  189  A    between atoms: _460  and  _461
REMARK  190  A    between atoms: _463  and  _465
REMARK  191  A    between atoms: _465  and  _466
REMARK  192  A    between atoms: _468  and  _470
REMARK  193  A    between atoms: _470  and  _471
REMARK  194  A    between atoms: _470  and  _473
REMARK  195  A    between atoms: _473  and  _474
REMARK  196  A    between atoms: _477  and  _479
REMARK  197  A    between atoms: _479  and  _480
REMARK  198  A    between atoms: _482  and  _484
REMARK  199  A    between atoms: _484  and  _485
REMARK  200  A    between atoms: _487  and  _489
REMARK  201  A    between atoms: _489  and  _490
REMARK  202  A    between atoms: _489  and  _492
REMARK  203  A    between atoms: _492  and  _493
REMARK  204  A    between atoms: _496  and  _498
REMARK  205  A    between atoms: _498  and  _499
REMARK  206  A    between atoms: _498  and  _501
REMARK  207  A    between atoms: _504  and  _506
REMARK  208  A    between atoms: _506  and  _507
REMARK  209  A    between atoms: _506  and  _509
REMARK  210  A    between atoms: _509  and  _510
REMARK  211  A    between atoms: _514  and  _515
REMARK  212  A    between atoms: _520  and  _522
REMARK  213  A    between atoms: _522  and  _523
REMARK  214  A    between atoms: _522  and  _525
REMARK  215  A    between atoms: _525  and  _526
REMARK  216  A    between atoms: _530  and  _531
REMARK  217  A    between atoms: _536  and  _538
REMARK  218  A    between atoms: _538  and  _539
REMARK  219  A    between atoms: _542  and  _544
REMARK  220  A    between atoms: _544  and  _545
REMARK  221  A    between atoms: _544  and  _547
REMARK  222  A    between atoms: _547  and  _548
REMARK  223  A    between atoms: _553  and  _555
REMARK  224  A    between atoms: _555  and  _556
REMARK  225  A    between atoms: _555  and  _558
REMARK  226  A    between atoms: _558  and  _559
REMARK  227  A    between atoms: _562  and  _564
REMARK  228  A    between atoms: _564  and  _565
REMARK  229  A    between atoms: _564  and  _567
REMARK  230  A    between atoms: _567  and  _568
REMARK  231  A    between atoms: _571  and  _573
REMARK  232  A    between atoms: _573  and  _574
REMARK  233  A    between atoms: _576  and  _578
REMARK  234  A    between atoms: _578  and  _579
REMARK  235  A    between atoms: _578  and  _581
REMARK  236  A    between atoms: _581  and  _582
REMARK  237  A    between atoms: _582  and  _583
REMARK  238  A    between atoms: _583  and  _584
REMARK                            x       y       z     vdW  Elec       q    Type
REMARK                         _______ _______ _______ _____ _____    ______ ____
ROOT
ATOM      1  O   HOH     1      23.240 -40.409  14.120  0.00  0.00    +0.000 OA
ENDROOT
TORSDOF 0
REMARK  Name = ../refined-set-2016/2fle/2fle_pocket.pdb
REMARK  238 active torsions:
REMARK  status: ('A' for Active; 'I' for Inactive)
REMARK    1  A    between atoms: _1  and  _3
REMARK    2  A    between atoms: _3  and  _4
REMARK    3  A    between atoms: _3  and  _6
REMARK    4  A    between atoms: _6  and  _7
REMARK    5  A    between atoms: _7  and  _8
REMARK    6  A    between atoms: _8  and  _9
REMARK    7  A    between atoms: _19  and  _20
REMARK    8  A    between atoms: _25  and  _27
REMARK    9  A    between atoms: _27  and  _28
REMARK   10  A    between atoms: _27  and  _30
REMARK   11  A    between atoms: _30  and  _31
REMARK   12  A    between atoms: _34  and  _36
REMARK   13  A    between atoms: _36  and  _37
REMARK   14  A    between atoms: _36  and  _39
REMARK   15  A    between atoms: _39  and  _40
REMARK   16  A    between atoms: _43  and  _45
REMARK   17  A    between atoms: _45  and  _46
REMARK   18  A    between atoms: _45  and  _48
REMARK   19  A    between atoms: _48  and  _49
REMARK   20  A    between atoms: _52  and  _54
REMARK   21  A    between atoms: _54  and  _55
REMARK   22  A    between atoms: _54  and  _57
REMARK   23  A    between atoms: _57  and  _58
REMARK   24  A    between atoms: _61  and  _63
REMARK   25  A    between atoms: _63  and  _64
REMARK   26  A    between atoms: _63  and  _66
REMARK   27  A    between atoms: _66  and  _67
REMARK   28  A    between atoms: _70  and  _72
REMARK   29  A    between atoms: _72  and  _73
REMARK   30  A    between atoms: _75  and  _77
REMARK   31  A    between atoms: _77  and  _78
REMARK   32  A    between atoms: _81  and  _83
REMARK   33  A    between atoms: _83  and  _84
REMARK   34  A    between atoms: _83  and  _86
REMARK   35  A    between atoms: _86  and  _87
REMARK   36  A    between atoms: _90  and  _92
REMARK   37  A    between atoms: _92  and  _93
REMARK   38  A    between atoms: _92  and  _95
REMARK   39  A    between atoms: _95  and  _96
REMARK   40  A    between atoms: _99  and  _101
REMARK   41  A    between atoms: _101  and  _102
REMARK   42  A    between atoms: _101  and  _104
REMARK   43  A    between atoms: _104  and  _105
REMARK   44  A    between atoms: _108  and  _110
REMARK   45  A    between atoms: _110  and  _111
REMARK   46  A    between atoms: _110  and  _113
REMARK   47  A    between atoms: _116  and  _118
REMARK   48  A    between atoms: _118  and  _119
REMARK   49  A    between atoms: _118  and  _121
REMARK   50  A    between atoms: _121  and  _122
REMARK   51  A    between atoms: _125  and  _127
REMARK   52  A    between atoms: _127  and  _128
REMARK   53  A    between atoms: _127  and  _130
REMARK   54  A    between atoms: _130  and  _131
REMARK   55  A    between atoms: _131  and  _132
REMARK   56  A    between atoms: _132  and  _133
REMARK   57  A    between atoms: _133  and  _134
REMARK   58  A    between atoms: _138  and  _140
REMARK   59  A    between atoms: _140  and  _141
REMARK   60  A    between atoms: _140  and  _143
REMARK   61  A    between atoms: _143  and  _144
REMARK   62  A    between atoms: _144  and  _145
REMARK   63  A    between atoms: _147  and  _149
REMARK   64  A    between atoms: _149  and  _150
REMARK   65  A    between atoms: _149  and  _152
REMARK   66  A    between atoms: _152  and  _153
REMARK   67  A    between atoms: _156  and  _158
REMARK   68  A    between atoms: _158  and  _159
REMARK   69  A    between atoms: _161  and  _163
REMARK   70  A    between atoms: _163  and  _164
REMARK   71  A    between atoms: _166  and  _168
REMARK   72  A    between atoms: _168  and  _169
REMARK   73  A    between atoms: _168  and  _171
REMARK   74  A    between atoms: _171  and  _172
REMARK   75  A    between atoms: _175  and  _177
REMARK   76  A    between atoms: _177  and  _178
REMARK   77  A    between atoms: _180  and  _182
REMARK   78  A    between atoms: _182  and  _183
REMARK   79  A    between atoms: _185  and  _187
REMARK   80  A    between atoms: _187  and  _188
REMARK   81  A    between atoms: _187  and  _190
REMARK   82  A    between atoms: _190  and  _191
REMARK   83  A    between atoms: _197  and  _199
REMARK   84  A    between atoms: _199  and  _200
REMARK   85  A    between atoms: _199  and  _202
REMARK   86  A    between atoms: _202  and  _203
REMARK   87  A    between atoms: _206  and  _208
REMARK   88  A    between atoms: _208  and  _209
REMARK   89  A    between atoms: _208  and  _211
REMARK   90  A    between atoms: _214  and  _216
REMARK   91  A    between atoms: _216  and  _217
REMARK   92  A    between atoms: _216  and  _219
REMARK   93  A    between atoms: _219  and  _220
REMARK   94  A    between atoms: _224  and  _225
REMARK   95  A    between atoms: _230  and  _232
REMARK   96  A    between atoms: _232  and  _233
REMARK   97  A    between atoms: _232  and  _235
REMARK   98  A    between atoms: _235  and  _236
REMARK   99  A    between atoms: _240  and  _241
REMARK  100  A    between atoms: _246  and  _248
REMARK  101  A    between atoms: _248  and  _249
REMARK  102  A    between atoms: _252  and  _254
REMARK  103  A    between atoms: _254  and  _255
REMARK  104  A    between atoms: _254  and  _257
REMARK  105  A    between atoms: _257  and  _258
REMARK  106  A    between atoms: _263  and  _265
REMARK  107  A    between atoms: _265  and  _266
REMARK  108  A    between atoms: _265  and  _268
REMARK  109  A    between atoms: _268  and  _269
REMARK  110  A    between atoms: _272  and  _274
REMARK  111  A    between atoms: _274  and  _275
REMARK  112  A    between atoms: _274  and  _277
REMARK  113  A    between atoms: _277  and  _278
REMARK  114  A    between atoms: _281  and  _283
REMARK  115  A    between atoms: _283  and  _284
REMARK  116  A    between atoms: _286  and  _288
REMARK  117  A    between atoms: _288  and  _289
REMARK  118  A    between atoms: _288  and  _291
REMARK  119  A    between atoms: _291  and  _292
REMARK  120  A    between atoms: _292  and  _293
REMARK  121  A    between atoms: _293  and  _294
REMARK  122  A    between atoms: _303  and  _305
REMARK  123  A    between atoms: _305  and  _306
REMARK  124  A    between atoms: _305  and  _308
REMARK  125  A    between atoms: _308  and  _309
REMARK  126  A    between atoms: _309  and  _310
REMARK  127  A    between atoms: _310  and  _311
REMARK  128  A    between atoms: _321  and  _322
REMARK  129  A    between atoms: _327  and  _329
REMARK  130  A    between atoms: _329  and  _330
REMARK  131  A    between atoms: _329  and  _332
REMARK  132  A    between atoms: _332  and  _333
REMARK  133  A    between atoms: _336  and  _338
REMARK  134  A    between atoms: _338  and  _339
REMARK  135  A    between atoms: _338  and  _341
REMARK  136  A    between atoms: _341  and  _342
REMARK  137  A    between atoms: _345  and  _347
REMARK  138  A    between atoms: _347  and  _348
REMARK  139  A    between atoms: _347  and  _350
REMARK  140  A    between atoms: _350  and  _351
REMARK  141  A    between atoms: _354  and  _356
REMARK  142  A    between atoms: _356  and  _357
REMARK  143  A    between atoms: _356  and  _359
REMARK  144  A    between atoms: _359  and  _360
REMARK  145  A    between atoms: _363  and  _365
REMARK  146  A    between atoms: _365  and  _366
REMARK  147  A    between atoms: _365  and  _368
REMARK  148  A    between atoms: _368  and  _369
REMARK  149  A    between atoms: _372  and  _374
REMARK  150  A    between atoms: _374  and  _375
REMARK  151  A    between atoms: _377  and  _379
REMARK  152  A    between atoms: _379  and  _380
REMARK  153  A    between atoms: _383  and  _385
REMARK  154  A    between atoms: _385  and  _386
REMARK  155  A    between atoms: _385  and  _388
REMARK  156  A    between atoms: _388  and  _389
REMARK  157  A    between atoms: _392  and  _394
REMARK  158  A    between atoms: _394  and  _395
REMARK  159  A    between atoms: _394  and  _397
REMARK  160  A    between atoms: _397  and  _398
REMARK  161  A    between atoms: _401  and  _403
REMARK  162  A    between atoms: _403  and  _404
REMARK  163  A    between atoms: _403  and  _406
REMARK  164  A    between atoms: _406  and  _407
REMARK  165  A    between atoms: _410  and  _412
REMARK  166  A    between atoms: _412  and  _413
REMARK  167  A    between atoms: _412  and  _415
REMARK  168  A    between atoms: _418  and  _420
REMARK  169  A    between atoms: _420  and  _421
REMARK  170  A    between atoms: _420  and  _423
REMARK  171  A    between atoms: _423  and  _424
REMARK  172  A    between atoms: _427  and  _429
REMARK  173  A    between atoms: _429  and  _430
REMARK  174  A    between atoms: _429  and  _432
REMARK  175  A    between atoms: _432  and  _433
REMARK  176  A    between atoms: _433  and  _434
REMARK  177  A    between atoms: _434  and  _435
REMARK  178  A    between atoms: _435  and  _436
REMARK  179  A    between atoms: _440  and  _442
REMARK  180  A    between atoms: _442  and  _443
REMARK  181  A    between atoms: _442  and  _445
REMARK  182  A    between atoms: _445  and  _446
REMARK  183  A    between atoms: _446  and  _447
REMARK  184  A    between atoms: _449  and  _451
REMARK  185  A    between atoms: _451  and  _452
REMARK  186  A    between atoms: _451  and  _454
REMARK  187  A    between atoms: _454  and  _455
REMARK  188  A    between atoms: _458  and  _460
REMARK  189  A    between atoms: _460  and  _461
REMARK  190  A    between atoms: _463  and  _465
REMARK  191  A    between atoms: _465  and  _466
REMARK  192  A    between atoms: _468  and  _470
REMARK  193  A    between atoms: _470  and  _471
REMARK  194  A    between atoms: _470  and  _473
REMARK  195  A    between atoms: _473  and  _474
REMARK  196  A    between atoms: _477  and  _479
REMARK  197  A    between atoms: _479  and  _480
REMARK  198  A    between atoms: _482  and  _484
REMARK  199  A    between atoms: _484  and  _485
REMARK  200  A    between atoms: _487  and  _489
REMARK  201  A    between atoms: _489  and  _490
REMARK  202  A    between atoms: _489  and  _492
REMARK  203  A    between atoms: _492  and  _493
REMARK  204  A    between atoms: _496  and  _498
REMARK  205  A    between atoms: _498  and  _499
REMARK  206  A    between atoms: _498  and  _501
REMARK  207  A    between atoms: _504  and  _506
REMARK  208  A    between atoms: _506  and  _507
REMARK  209  A    between atoms: _506  and  _509
REMARK  210  A    between atoms: _509  and  _510
REMARK  211  A    between atoms: _514  and  _515
REMARK  212  A    between atoms: _520  and  _522
REMARK  213  A    between atoms: _522  and  _523
REMARK  214  A    between atoms: _522  and  _525
REMARK  215  A    between atoms: _525  and  _526
REMARK  216  A    between atoms: _530  and  _531
REMARK  217  A    between atoms: _536  and  _538
REMARK  218  A    between atoms: _538  and  _539
REMARK  219  A    between atoms: _542  and  _544
REMARK  220  A    between atoms: _544  and  _545
REMARK  221  A    between atoms: _544  and  _547
REMARK  222  A    between atoms: _547  and  _548
REMARK  223  A    between atoms: _553  and  _555
REMARK  224  A    between atoms: _555  and  _556
REMARK  225  A    between atoms: _555  and  _558
REMARK  226  A    between atoms: _558  and  _559
REMARK  227  A    between atoms: _562  and  _564
REMARK  228  A    between atoms: _564  and  _565
REMARK  229  A    between atoms: _564  and  _567
REMARK  230  A    between atoms: _567  and  _568
REMARK  231  A    between atoms: _571  and  _573
REMARK  232  A    between atoms: _573  and  _574
REMARK  233  A    between atoms: _576  and  _578
REMARK  234  A    between atoms: _578  and  _579
REMARK  235  A    between atoms: _578  and  _581
REMARK  236  A    between atoms: _581  and  _582
REMARK  237  A    between atoms: _582  and  _583
REMARK  238  A    between atoms: _583  and  _584
REMARK                            x       y       z     vdW  Elec       q    Type
REMARK                         _______ _______ _______ _____ _____    ______ ____
ROOT
ATOM      1  O   HOH     1      22.597 -34.855  27.063  0.00  0.00    +0.000 OA
ENDROOT
TORSDOF 0
REMARK  Name = ../refined-set-2016/2fle/2fle_pocket.pdb
REMARK  238 active torsions:
REMARK  status: ('A' for Active; 'I' for Inactive)
REMARK    1  A    between atoms: _1  and  _3
REMARK    2  A    between atoms: _3  and  _4
REMARK    3  A    between atoms: _3  and  _6
REMARK    4  A    between atoms: _6  and  _7
REMARK    5  A    between atoms: _7  and  _8
REMARK    6  A    between atoms: _8  and  _9
REMARK    7  A    between atoms: _19  and  _20
REMARK    8  A    between atoms: _25  and  _27
REMARK    9  A    between atoms: _27  and  _28
REMARK   10  A    between atoms: _27  and  _30
REMARK   11  A    between atoms: _30  and  _31
REMARK   12  A    between atoms: _34  and  _36
REMARK   13  A    between atoms: _36  and  _37
REMARK   14  A    between atoms: _36  and  _39
REMARK   15  A    between atoms: _39  and  _40
REMARK   16  A    between atoms: _43  and  _45
REMARK   17  A    between atoms: _45  and  _46
REMARK   18  A    between atoms: _45  and  _48
REMARK   19  A    between atoms: _48  and  _49
REMARK   20  A    between atoms: _52  and  _54
REMARK   21  A    between atoms: _54  and  _55
REMARK   22  A    between atoms: _54  and  _57
REMARK   23  A    between atoms: _57  and  _58
REMARK   24  A    between atoms: _61  and  _63
REMARK   25  A    between atoms: _63  and  _64
REMARK   26  A    between atoms: _63  and  _66
REMARK   27  A    between atoms: _66  and  _67
REMARK   28  A    between atoms: _70  and  _72
REMARK   29  A    between atoms: _72  and  _73
REMARK   30  A    between atoms: _75  and  _77
REMARK   31  A    between atoms: _77  and  _78
REMARK   32  A    between atoms: _81  and  _83
REMARK   33  A    between atoms: _83  and  _84
REMARK   34  A    between atoms: _83  and  _86
REMARK   35  A    between atoms: _86  and  _87
REMARK   36  A    between atoms: _90  and  _92
REMARK   37  A    between atoms: _92  and  _93
REMARK   38  A    between atoms: _92  and  _95
REMARK   39  A    between atoms: _95  and  _96
REMARK   40  A    between atoms: _99  and  _101
REMARK   41  A    between atoms: _101  and  _102
REMARK   42  A    between atoms: _101  and  _104
REMARK   43  A    between atoms: _104  and  _105
REMARK   44  A    between atoms: _108  and  _110
REMARK   45  A    between atoms: _110  and  _111
REMARK   46  A    between atoms: _110  and  _113
REMARK   47  A    between atoms: _116  and  _118
REMARK   48  A    between atoms: _118  and  _119
REMARK   49  A    between atoms: _118  and  _121
REMARK   50  A    between atoms: _121  and  _122
REMARK   51  A    between atoms: _125  and  _127
REMARK   52  A    between atoms: _127  and  _128
REMARK   53  A    between atoms: _127  and  _130
REMARK   54  A    between atoms: _130  and  _131
REMARK   55  A    between atoms: _131  and  _132
REMARK   56  A    between atoms: _132  and  _133
REMARK   57  A    between atoms: _133  and  _134
REMARK   58  A    between atoms: _138  and  _140
REMARK   59  A    between atoms: _140  and  _141
REMARK   60  A    between atoms: _140  and  _143
REMARK   61  A    between atoms: _143  and  _144
REMARK   62  A    between atoms: _144  and  _145
REMARK   63  A    between atoms: _147  and  _149
REMARK   64  A    between atoms: _149  and  _150
REMARK   65  A    between atoms: _149  and  _152
REMARK   66  A    between atoms: _152  and  _153
REMARK   67  A    between atoms: _156  and  _158
REMARK   68  A    between atoms: _158  and  _159
REMARK   69  A    between atoms: _161  and  _163
REMARK   70  A    between atoms: _163  and  _164
REMARK   71  A    between atoms: _166  and  _168
REMARK   72  A    between atoms: _168  and  _169
REMARK   73  A    between atoms: _168  and  _171
REMARK   74  A    between atoms: _171  and  _172
REMARK   75  A    between atoms: _175  and  _177
REMARK   76  A    between atoms: _177  and  _178
REMARK   77  A    between atoms: _180  and  _182
REMARK   78  A    between atoms: _182  and  _183
REMARK   79  A    between atoms: _185  and  _187
REMARK   80  A    between atoms: _187  and  _188
REMARK   81  A    between atoms: _187  and  _190
REMARK   82  A    between atoms: _190  and  _191
REMARK   83  A    between atoms: _197  and  _199
REMARK   84  A    between atoms: _199  and  _200
REMARK   85  A    between atoms: _199  and  _202
REMARK   86  A    between atoms: _202  and  _203
REMARK   87  A    between atoms: _206  and  _208
REMARK   88  A    between atoms: _208  and  _209
REMARK   89  A    between atoms: _208  and  _211
REMARK   90  A    between atoms: _214  and  _216
REMARK   91  A    between atoms: _216  and  _217
REMARK   92  A    between atoms: _216  and  _219
REMARK   93  A    between atoms: _219  and  _220
REMARK   94  A    between atoms: _224  and  _225
REMARK   95  A    between atoms: _230  and  _232
REMARK   96  A    between atoms: _232  and  _233
REMARK   97  A    between atoms: _232  and  _235
REMARK   98  A    between atoms: _235  and  _236
REMARK   99  A    between atoms: _240  and  _241
REMARK  100  A    between atoms: _246  and  _248
REMARK  101  A    between atoms: _248  and  _249
REMARK  102  A    between atoms: _252  and  _254
REMARK  103  A    between atoms: _254  and  _255
REMARK  104  A    between atoms: _254  and  _257
REMARK  105  A    between atoms: _257  and  _258
REMARK  106  A    between atoms: _263  and  _265
REMARK  107  A    between atoms: _265  and  _266
REMARK  108  A    between atoms: _265  and  _268
REMARK  109  A    between atoms: _268  and  _269
REMARK  110  A    between atoms: _272  and  _274
REMARK  111  A    between atoms: _274  and  _275
REMARK  112  A    between atoms: _274  and  _277
REMARK  113  A    between atoms: _277  and  _278
REMARK  114  A    between atoms: _281  and  _283
REMARK  115  A    between atoms: _283  and  _284
REMARK  116  A    between atoms: _286  and  _288
REMARK  117  A    between atoms: _288  and  _289
REMARK  118  A    between atoms: _288  and  _291
REMARK  119  A    between atoms: _291  and  _292
REMARK  120  A    between atoms: _292  and  _293
REMARK  121  A    between atoms: _293  and  _294
REMARK  122  A    between atoms: _303  and  _305
REMARK  123  A    between atoms: _305  and  _306
REMARK  124  A    between atoms: _305  and  _308
REMARK  125  A    between atoms: _308  and  _309
REMARK  126  A    between atoms: _309  and  _310
REMARK  127  A    between atoms: _310  and  _311
REMARK  128  A    between atoms: _321  and  _322
REMARK  129  A    between atoms: _327  and  _329
REMARK  130  A    between atoms: _329  and  _330
REMARK  131  A    between atoms: _329  and  _332
REMARK  132  A    between atoms: _332  and  _333
REMARK  133  A    between atoms: _336  and  _338
REMARK  134  A    between atoms: _338  and  _339
REMARK  135  A    between atoms: _338  and  _341
REMARK  136  A    between atoms: _341  and  _342
REMARK  137  A    between atoms: _345  and  _347
REMARK  138  A    between atoms: _347  and  _348
REMARK  139  A    between atoms: _347  and  _350
REMARK  140  A    between atoms: _350  and  _351
REMARK  141  A    between atoms: _354  and  _356
REMARK  142  A    between atoms: _356  and  _357
REMARK  143  A    between atoms: _356  and  _359
REMARK  144  A    between atoms: _359  and  _360
REMARK  145  A    between atoms: _363  and  _365
REMARK  146  A    between atoms: _365  and  _366
REMARK  147  A    between atoms: _365  and  _368
REMARK  148  A    between atoms: _368  and  _369
REMARK  149  A    between atoms: _372  and  _374
REMARK  150  A    between atoms: _374  and  _375
REMARK  151  A    between atoms: _377  and  _379
REMARK  152  A    between atoms: _379  and  _380
REMARK  153  A    between atoms: _383  and  _385
REMARK  154  A    between atoms: _385  and  _386
REMARK  155  A    between atoms: _385  and  _388
REMARK  156  A    between atoms: _388  and  _389
REMARK  157  A    between atoms: _392  and  _394
REMARK  158  A    between atoms: _394  and  _395
REMARK  159  A    between atoms: _394  and  _397
REMARK  160  A    between atoms: _397  and  _398
REMARK  161  A    between atoms: _401  and  _403
REMARK  162  A    between atoms: _403  and  _404
REMARK  163  A    between atoms: _403  and  _406
REMARK  164  A    between atoms: _406  and  _407
REMARK  165  A    between atoms: _410  and  _412
REMARK  166  A    between atoms: _412  and  _413
REMARK  167  A    between atoms: _412  and  _415
REMARK  168  A    between atoms: _418  and  _420
REMARK  169  A    between atoms: _420  and  _421
REMARK  170  A    between atoms: _420  and  _423
REMARK  171  A    between atoms: _423  and  _424
REMARK  172  A    between atoms: _427  and  _429
REMARK  173  A    between atoms: _429  and  _430
REMARK  174  A    between atoms: _429  and  _432
REMARK  175  A    between atoms: _432  and  _433
REMARK  176  A    between atoms: _433  and  _434
REMARK  177  A    between atoms: _434  and  _435
REMARK  178  A    between atoms: _435  and  _436
REMARK  179  A    between atoms: _440  and  _442
REMARK  180  A    between atoms: _442  and  _443
REMARK  181  A    between atoms: _442  and  _445
REMARK  182  A    between atoms: _445  and  _446
REMARK  183  A    between atoms: _446  and  _447
REMARK  184  A    between atoms: _449  and  _451
REMARK  185  A    between atoms: _451  and  _452
REMARK  186  A    between atoms: _451  and  _454
REMARK  187  A    between atoms: _454  and  _455
REMARK  188  A    between atoms: _458  and  _460
REMARK  189  A    between atoms: _460  and  _461
REMARK  190  A    between atoms: _463  and  _465
REMARK  191  A    between atoms: _465  and  _466
REMARK  192  A    between atoms: _468  and  _470
REMARK  193  A    between atoms: _470  and  _471
REMARK  194  A    between atoms: _470  and  _473
REMARK  195  A    between atoms: _473  and  _474
REMARK  196  A    between atoms: _477  and  _479
REMARK  197  A    between atoms: _479  and  _480
REMARK  198  A    between atoms: _482  and  _484
REMARK  199  A    between atoms: _484  and  _485
REMARK  200  A    between atoms: _487  and  _489
REMARK  201  A    between atoms: _489  and  _490
REMARK  202  A    between atoms: _489  and  _492
REMARK  203  A    between atoms: _492  and  _493
REMARK  204  A    between atoms: _496  and  _498
REMARK  205  A    between atoms: _498  and  _499
REMARK  206  A    between atoms: _498  and  _501
REMARK  207  A    between atoms: _504  and  _506
REMARK  208  A    between atoms: _506  and  _507
REMARK  209  A    between atoms: _506  and  _509
REMARK  210  A    between atoms: _509  and  _510
REMARK  211  A    between atoms: _514  and  _515
REMARK  212  A    between atoms: _520  and  _522
REMARK  213  A    between atoms: _522  and  _523
REMARK  214  A    between atoms: _522  and  _525
REMARK  215  A    between atoms: _525  and  _526
REMARK  216  A    between atoms: _530  and  _531
REMARK  217  A    between atoms: _536  and  _538
REMARK  218  A    between atoms: _538  and  _539
REMARK  219  A    between atoms: _542  and  _544
REMARK  220  A    between atoms: _544  and  _545
REMARK  221  A    between atoms: _544  and  _547
REMARK  222  A    between atoms: _547  and  _548
REMARK  223  A    between atoms: _553  and  _555
REMARK  224  A    between atoms: _555  and  _556
REMARK  225  A    between atoms: _555  and  _558
REMARK  226  A    between atoms: _558  and  _559
REMARK  227  A    between atoms: _562  and  _564
REMARK  228  A    between atoms: _564  and  _565
REMARK  229  A    between atoms: _564  and  _567
REMARK  230  A    between atoms: _567  and  _568
REMARK  231  A    between atoms: _571  and  _573
REMARK  232  A    between atoms: _573  and  _574
REMARK  233  A    between atoms: _576  and  _578
REMARK  234  A    between atoms: _578  and  _579
REMARK  235  A    between atoms: _578  and  _581
REMARK  236  A    between atoms: _581  and  _582
REMARK  237  A    between atoms: _582  and  _583
REMARK  238  A    between atoms: _583  and  _584
REMARK                            x       y       z     vdW  Elec       q    Type
REMARK                         _______ _______ _______ _____ _____    ______ ____
ROOT
ATOM      1  O   HOH     1      27.542 -26.100   6.098  0.00  0.00    +0.000 OA
ENDROOT
TORSDOF 0
REMARK  Name = ../refined-set-2016/2fle/2fle_pocket.pdb
REMARK  238 active torsions:
REMARK  status: ('A' for Active; 'I' for Inactive)
REMARK    1  A    between atoms: _1  and  _3
REMARK    2  A    between atoms: _3  and  _4
REMARK    3  A    between atoms: _3  and  _6
REMARK    4  A    between atoms: _6  and  _7
REMARK    5  A    between atoms: _7  and  _8
REMARK    6  A    between atoms: _8  and  _9
REMARK    7  A    between atoms: _19  and  _20
REMARK    8  A    between atoms: _25  and  _27
REMARK    9  A    between atoms: _27  and  _28
REMARK   10  A    between atoms: _27  and  _30
REMARK   11  A    between atoms: _30  and  _31
REMARK   12  A    between atoms: _34  and  _36
REMARK   13  A    between atoms: _36  and  _37
REMARK   14  A    between atoms: _36  and  _39
REMARK   15  A    between atoms: _39  and  _40
REMARK   16  A    between atoms: _43  and  _45
REMARK   17  A    between atoms: _45  and  _46
REMARK   18  A    between atoms: _45  and  _48
REMARK   19  A    between atoms: _48  and  _49
REMARK   20  A    between atoms: _52  and  _54
REMARK   21  A    between atoms: _54  and  _55
REMARK   22  A    between atoms: _54  and  _57
REMARK   23  A    between atoms: _57  and  _58
REMARK   24  A    between atoms: _61  and  _63
REMARK   25  A    between atoms: _63  and  _64
REMARK   26  A    between atoms: _63  and  _66
REMARK   27  A    between atoms: _66  and  _67
REMARK   28  A    between atoms: _70  and  _72
REMARK   29  A    between atoms: _72  and  _73
REMARK   30  A    between atoms: _75  and  _77
REMARK   31  A    between atoms: _77  and  _78
REMARK   32  A    between atoms: _81  and  _83
REMARK   33  A    between atoms: _83  and  _84
REMARK   34  A    between atoms: _83  and  _86
REMARK   35  A    between atoms: _86  and  _87
REMARK   36  A    between atoms: _90  and  _92
REMARK   37  A    between atoms: _92  and  _93
REMARK   38  A    between atoms: _92  and  _95
REMARK   39  A    between atoms: _95  and  _96
REMARK   40  A    between atoms: _99  and  _101
REMARK   41  A    between atoms: _101  and  _102
REMARK   42  A    between atoms: _101  and  _104
REMARK   43  A    between atoms: _104  and  _105
REMARK   44  A    between atoms: _108  and  _110
REMARK   45  A    between atoms: _110  and  _111
REMARK   46  A    between atoms: _110  and  _113
REMARK   47  A    between atoms: _116  and  _118
REMARK   48  A    between atoms: _118  and  _119
REMARK   49  A    between atoms: _118  and  _121
REMARK   50  A    between atoms: _121  and  _122
REMARK   51  A    between atoms: _125  and  _127
REMARK   52  A    between atoms: _127  and  _128
REMARK   53  A    between atoms: _127  and  _130
REMARK   54  A    between atoms: _130  and  _131
REMARK   55  A    between atoms: _131  and  _132
REMARK   56  A    between atoms: _132  and  _133
REMARK   57  A    between atoms: _133  and  _134
REMARK   58  A    between atoms: _138  and  _140
REMARK   59  A    between atoms: _140  and  _141
REMARK   60  A    between atoms: _140  and  _143
REMARK   61  A    between atoms: _143  and  _144
REMARK   62  A    between atoms: _144  and  _145
REMARK   63  A    between atoms: _147  and  _149
REMARK   64  A    between atoms: _149  and  _150
REMARK   65  A    between atoms: _149  and  _152
REMARK   66  A    between atoms: _152  and  _153
REMARK   67  A    between atoms: _156  and  _158
REMARK   68  A    between atoms: _158  and  _159
REMARK   69  A    between atoms: _161  and  _163
REMARK   70  A    between atoms: _163  and  _164
REMARK   71  A    between atoms: _166  and  _168
REMARK   72  A    between atoms: _168  and  _169
REMARK   73  A    between atoms: _168  and  _171
REMARK   74  A    between atoms: _171  and  _172
REMARK   75  A    between atoms: _175  and  _177
REMARK   76  A    between atoms: _177  and  _178
REMARK   77  A    between atoms: _180  and  _182
REMARK   78  A    between atoms: _182  and  _183
REMARK   79  A    between atoms: _185  and  _187
REMARK   80  A    between atoms: _187  and  _188
REMARK   81  A    between atoms: _187  and  _190
REMARK   82  A    between atoms: _190  and  _191
REMARK   83  A    between atoms: _197  and  _199
REMARK   84  A    between atoms: _199  and  _200
REMARK   85  A    between atoms: _199  and  _202
REMARK   86  A    between atoms: _202  and  _203
REMARK   87  A    between atoms: _206  and  _208
REMARK   88  A    between atoms: _208  and  _209
REMARK   89  A    between atoms: _208  and  _211
REMARK   90  A    between atoms: _214  and  _216
REMARK   91  A    between atoms: _216  and  _217
REMARK   92  A    between atoms: _216  and  _219
REMARK   93  A    between atoms: _219  and  _220
REMARK   94  A    between atoms: _224  and  _225
REMARK   95  A    between atoms: _230  and  _232
REMARK   96  A    between atoms: _232  and  _233
REMARK   97  A    between atoms: _232  and  _235
REMARK   98  A    between atoms: _235  and  _236
REMARK   99  A    between atoms: _240  and  _241
REMARK  100  A    between atoms: _246  and  _248
REMARK  101  A    between atoms: _248  and  _249
REMARK  102  A    between atoms: _252  and  _254
REMARK  103  A    between atoms: _254  and  _255
REMARK  104  A    between atoms: _254  and  _257
REMARK  105  A    between atoms: _257  and  _258
REMARK  106  A    between atoms: _263  and  _265
REMARK  107  A    between atoms: _265  and  _266
REMARK  108  A    between atoms: _265  and  _268
REMARK  109  A    between atoms: _268  and  _269
REMARK  110  A    between atoms: _272  and  _274
REMARK  111  A    between atoms: _274  and  _275
REMARK  112  A    between atoms: _274  and  _277
REMARK  113  A    between atoms: _277  and  _278
REMARK  114  A    between atoms: _281  and  _283
REMARK  115  A    between atoms: _283  and  _284
REMARK  116  A    between atoms: _286  and  _288
REMARK  117  A    between atoms: _288  and  _289
REMARK  118  A    between atoms: _288  and  _291
REMARK  119  A    between atoms: _291  and  _292
REMARK  120  A    between atoms: _292  and  _293
REMARK  121  A    between atoms: _293  and  _294
REMARK  122  A    between atoms: _303  and  _305
REMARK  123  A    between atoms: _305  and  _306
REMARK  124  A    between atoms: _305  and  _308
REMARK  125  A    between atoms: _308  and  _309
REMARK  126  A    between atoms: _309  and  _310
REMARK  127  A    between atoms: _310  and  _311
REMARK  128  A    between atoms: _321  and  _322
REMARK  129  A    between atoms: _327  and  _329
REMARK  130  A    between atoms: _329  and  _330
REMARK  131  A    between atoms: _329  and  _332
REMARK  132  A    between atoms: _332  and  _333
REMARK  133  A    between atoms: _336  and  _338
REMARK  134  A    between atoms: _338  and  _339
REMARK  135  A    between atoms: _338  and  _341
REMARK  136  A    between atoms: _341  and  _342
REMARK  137  A    between atoms: _345  and  _347
REMARK  138  A    between atoms: _347  and  _348
REMARK  139  A    between atoms: _347  and  _350
REMARK  140  A    between atoms: _350  and  _351
REMARK  141  A    between atoms: _354  and  _356
REMARK  142  A    between atoms: _356  and  _357
REMARK  143  A    between atoms: _356  and  _359
REMARK  144  A    between atoms: _359  and  _360
REMARK  145  A    between atoms: _363  and  _365
REMARK  146  A    between atoms: _365  and  _366
REMARK  147  A    between atoms: _365  and  _368
REMARK  148  A    between atoms: _368  and  _369
REMARK  149  A    between atoms: _372  and  _374
REMARK  150  A    between atoms: _374  and  _375
REMARK  151  A    between atoms: _377  and  _379
REMARK  152  A    between atoms: _379  and  _380
REMARK  153  A    between atoms: _383  and  _385
REMARK  154  A    between atoms: _385  and  _386
REMARK  155  A    between atoms: _385  and  _388
REMARK  156  A    between atoms: _388  and  _389
REMARK  157  A    between atoms: _392  and  _394
REMARK  158  A    between atoms: _394  and  _395
REMARK  159  A    between atoms: _394  and  _397
REMARK  160  A    between atoms: _397  and  _398
REMARK  161  A    between atoms: _401  and  _403
REMARK  162  A    between atoms: _403  and  _404
REMARK  163  A    between atoms: _403  and  _406
REMARK  164  A    between atoms: _406  and  _407
REMARK  165  A    between atoms: _410  and  _412
REMARK  166  A    between atoms: _412  and  _413
REMARK  167  A    between atoms: _412  and  _415
REMARK  168  A    between atoms: _418  and  _420
REMARK  169  A    between atoms: _420  and  _421
REMARK  170  A    between atoms: _420  and  _423
REMARK  171  A    between atoms: _423  and  _424
REMARK  172  A    between atoms: _427  and  _429
REMARK  173  A    between atoms: _429  and  _430
REMARK  174  A    between atoms: _429  and  _432
REMARK  175  A    between atoms: _432  and  _433
REMARK  176  A    between atoms: _433  and  _434
REMARK  177  A    between atoms: _434  and  _435
REMARK  178  A    between atoms: _435  and  _436
REMARK  179  A    between atoms: _440  and  _442
REMARK  180  A    between atoms: _442  and  _443
REMARK  181  A    between atoms: _442  and  _445
REMARK  182  A    between atoms: _445  and  _446
REMARK  183  A    between atoms: _446  and  _447
REMARK  184  A    between atoms: _449  and  _451
REMARK  185  A    between atoms: _451  and  _452
REMARK  186  A    between atoms: _451  and  _454
REMARK  187  A    between atoms: _454  and  _455
REMARK  188  A    between atoms: _458  and  _460
REMARK  189  A    between atoms: _460  and  _461
REMARK  190  A    between atoms: _463  and  _465
REMARK  191  A    between atoms: _465  and  _466
REMARK  192  A    between atoms: _468  and  _470
REMARK  193  A    between atoms: _470  and  _471
REMARK  194  A    between atoms: _470  and  _473
REMARK  195  A    between atoms: _473  and  _474
REMARK  196  A    between atoms: _477  and  _479
REMARK  197  A    between atoms: _479  and  _480
REMARK  198  A    between atoms: _482  and  _484
REMARK  199  A    between atoms: _484  and  _485
REMARK  200  A    between atoms: _487  and  _489
REMARK  201  A    between atoms: _489  and  _490
REMARK  202  A    between atoms: _489  and  _492
REMARK  203  A    between atoms: _492  and  _493
REMARK  204  A    between atoms: _496  and  _498
REMARK  205  A    between atoms: _498  and  _499
REMARK  206  A    between atoms: _498  and  _501
REMARK  207  A    between atoms: _504  and  _506
REMARK  208  A    between atoms: _506  and  _507
REMARK  209  A    between atoms: _506  and  _509
REMARK  210  A    between atoms: _509  and  _510
REMARK  211  A    between atoms: _514  and  _515
REMARK  212  A    between atoms: _520  and  _522
REMARK  213  A    between atoms: _522  and  _523
REMARK  214  A    between atoms: _522  and  _525
REMARK  215  A    between atoms: _525  and  _526
REMARK  216  A    between atoms: _530  and  _531
REMARK  217  A    between atoms: _536  and  _538
REMARK  218  A    between atoms: _538  and  _539
REMARK  219  A    between atoms: _542  and  _544
REMARK  220  A    between atoms: _544  and  _545
REMARK  221  A    between atoms: _544  and  _547
REMARK  222  A    between atoms: _547  and  _548
REMARK  223  A    between atoms: _553  and  _555
REMARK  224  A    between atoms: _555  and  _556
REMARK  225  A    between atoms: _555  and  _558
REMARK  226  A    between atoms: _558  and  _559
REMARK  227  A    between atoms: _562  and  _564
REMARK  228  A    between atoms: _564  and  _565
REMARK  229  A    between atoms: _564  and  _567
REMARK  230  A    between atoms: _567  and  _568
REMARK  231  A    between atoms: _571  and  _573
REMARK  232  A    between atoms: _573  and  _574
REMARK  233  A    between atoms: _576  and  _578
REMARK  234  A    between atoms: _578  and  _579
REMARK  235  A    between atoms: _578  and  _581
REMARK  236  A    between atoms: _581  and  _582
REMARK  237  A    between atoms: _582  and  _583
REMARK  238  A    between atoms: _583  and  _584
REMARK                            x       y       z     vdW  Elec       q    Type
REMARK                         _______ _______ _______ _____ _____    ______ ____
ROOT
ATOM      1  O   HOH     1      15.455 -34.703  25.448  0.00  0.00    +0.000 OA
ENDROOT
TORSDOF 0
REMARK  Name = ../refined-set-2016/2fle/2fle_pocket.pdb
REMARK  238 active torsions:
REMARK  status: ('A' for Active; 'I' for Inactive)
REMARK    1  A    between atoms: _1  and  _3
REMARK    2  A    between atoms: _3  and  _4
REMARK    3  A    between atoms: _3  and  _6
REMARK    4  A    between atoms: _6  and  _7
REMARK    5  A    between atoms: _7  and  _8
REMARK    6  A    between atoms: _8  and  _9
REMARK    7  A    between atoms: _19  and  _20
REMARK    8  A    between atoms: _25  and  _27
REMARK    9  A    between atoms: _27  and  _28
REMARK   10  A    between atoms: _27  and  _30
REMARK   11  A    between atoms: _30  and  _31
REMARK   12  A    between atoms: _34  and  _36
REMARK   13  A    between atoms: _36  and  _37
REMARK   14  A    between atoms: _36  and  _39
REMARK   15  A    between atoms: _39  and  _40
REMARK   16  A    between atoms: _43  and  _45
REMARK   17  A    between atoms: _45  and  _46
REMARK   18  A    between atoms: _45  and  _48
REMARK   19  A    between atoms: _48  and  _49
REMARK   20  A    between atoms: _52  and  _54
REMARK   21  A    between atoms: _54  and  _55
REMARK   22  A    between atoms: _54  and  _57
REMARK   23  A    between atoms: _57  and  _58
REMARK   24  A    between atoms: _61  and  _63
REMARK   25  A    between atoms: _63  and  _64
REMARK   26  A    between atoms: _63  and  _66
REMARK   27  A    between atoms: _66  and  _67
REMARK   28  A    between atoms: _70  and  _72
REMARK   29  A    between atoms: _72  and  _73
REMARK   30  A    between atoms: _75  and  _77
REMARK   31  A    between atoms: _77  and  _78
REMARK   32  A    between atoms: _81  and  _83
REMARK   33  A    between atoms: _83  and  _84
REMARK   34  A    between atoms: _83  and  _86
REMARK   35  A    between atoms: _86  and  _87
REMARK   36  A    between atoms: _90  and  _92
REMARK   37  A    between atoms: _92  and  _93
REMARK   38  A    between atoms: _92  and  _95
REMARK   39  A    between atoms: _95  and  _96
REMARK   40  A    between atoms: _99  and  _101
REMARK   41  A    between atoms: _101  and  _102
REMARK   42  A    between atoms: _101  and  _104
REMARK   43  A    between atoms: _104  and  _105
REMARK   44  A    between atoms: _108  and  _110
REMARK   45  A    between atoms: _110  and  _111
REMARK   46  A    between atoms: _110  and  _113
REMARK   47  A    between atoms: _116  and  _118
REMARK   48  A    between atoms: _118  and  _119
REMARK   49  A    between atoms: _118  and  _121
REMARK   50  A    between atoms: _121  and  _122
REMARK   51  A    between atoms: _125  and  _127
REMARK   52  A    between atoms: _127  and  _128
REMARK   53  A    between atoms: _127  and  _130
REMARK   54  A    between atoms: _130  and  _131
REMARK   55  A    between atoms: _131  and  _132
REMARK   56  A    between atoms: _132  and  _133
REMARK   57  A    between atoms: _133  and  _134
REMARK   58  A    between atoms: _138  and  _140
REMARK   59  A    between atoms: _140  and  _141
REMARK   60  A    between atoms: _140  and  _143
REMARK   61  A    between atoms: _143  and  _144
REMARK   62  A    between atoms: _144  and  _145
REMARK   63  A    between atoms: _147  and  _149
REMARK   64  A    between atoms: _149  and  _150
REMARK   65  A    between atoms: _149  and  _152
REMARK   66  A    between atoms: _152  and  _153
REMARK   67  A    between atoms: _156  and  _158
REMARK   68  A    between atoms: _158  and  _159
REMARK   69  A    between atoms: _161  and  _163
REMARK   70  A    between atoms: _163  and  _164
REMARK   71  A    between atoms: _166  and  _168
REMARK   72  A    between atoms: _168  and  _169
REMARK   73  A    between atoms: _168  and  _171
REMARK   74  A    between atoms: _171  and  _172
REMARK   75  A    between atoms: _175  and  _177
REMARK   76  A    between atoms: _177  and  _178
REMARK   77  A    between atoms: _180  and  _182
REMARK   78  A    between atoms: _182  and  _183
REMARK   79  A    between atoms: _185  and  _187
REMARK   80  A    between atoms: _187  and  _188
REMARK   81  A    between atoms: _187  and  _190
REMARK   82  A    between atoms: _190  and  _191
REMARK   83  A    between atoms: _197  and  _199
REMARK   84  A    between atoms: _199  and  _200
REMARK   85  A    between atoms: _199  and  _202
REMARK   86  A    between atoms: _202  and  _203
REMARK   87  A    between atoms: _206  and  _208
REMARK   88  A    between atoms: _208  and  _209
REMARK   89  A    between atoms: _208  and  _211
REMARK   90  A    between atoms: _214  and  _216
REMARK   91  A    between atoms: _216  and  _217
REMARK   92  A    between atoms: _216  and  _219
REMARK   93  A    between atoms: _219  and  _220
REMARK   94  A    between atoms: _224  and  _225
REMARK   95  A    between atoms: _230  and  _232
REMARK   96  A    between atoms: _232  and  _233
REMARK   97  A    between atoms: _232  and  _235
REMARK   98  A    between atoms: _235  and  _236
REMARK   99  A    between atoms: _240  and  _241
REMARK  100  A    between atoms: _246  and  _248
REMARK  101  A    between atoms: _248  and  _249
REMARK  102  A    between atoms: _252  and  _254
REMARK  103  A    between atoms: _254  and  _255
REMARK  104  A    between atoms: _254  and  _257
REMARK  105  A    between atoms: _257  and  _258
REMARK  106  A    between atoms: _263  and  _265
REMARK  107  A    between atoms: _265  and  _266
REMARK  108  A    between atoms: _265  and  _268
REMARK  109  A    between atoms: _268  and  _269
REMARK  110  A    between atoms: _272  and  _274
REMARK  111  A    between atoms: _274  and  _275
REMARK  112  A    between atoms: _274  and  _277
REMARK  113  A    between atoms: _277  and  _278
REMARK  114  A    between atoms: _281  and  _283
REMARK  115  A    between atoms: _283  and  _284
REMARK  116  A    between atoms: _286  and  _288
REMARK  117  A    between atoms: _288  and  _289
REMARK  118  A    between atoms: _288  and  _291
REMARK  119  A    between atoms: _291  and  _292
REMARK  120  A    between atoms: _292  and  _293
REMARK  121  A    between atoms: _293  and  _294
REMARK  122  A    between atoms: _303  and  _305
REMARK  123  A    between atoms: _305  and  _306
REMARK  124  A    between atoms: _305  and  _308
REMARK  125  A    between atoms: _308  and  _309
REMARK  126  A    between atoms: _309  and  _310
REMARK  127  A    between atoms: _310  and  _311
REMARK  128  A    between atoms: _321  and  _322
REMARK  129  A    between atoms: _327  and  _329
REMARK  130  A    between atoms: _329  and  _330
REMARK  131  A    between atoms: _329  and  _332
REMARK  132  A    between atoms: _332  and  _333
REMARK  133  A    between atoms: _336  and  _338
REMARK  134  A    between atoms: _338  and  _339
REMARK  135  A    between atoms: _338  and  _341
REMARK  136  A    between atoms: _341  and  _342
REMARK  137  A    between atoms: _345  and  _347
REMARK  138  A    between atoms: _347  and  _348
REMARK  139  A    between atoms: _347  and  _350
REMARK  140  A    between atoms: _350  and  _351
REMARK  141  A    between atoms: _354  and  _356
REMARK  142  A    between atoms: _356  and  _357
REMARK  143  A    between atoms: _356  and  _359
REMARK  144  A    between atoms: _359  and  _360
REMARK  145  A    between atoms: _363  and  _365
REMARK  146  A    between atoms: _365  and  _366
REMARK  147  A    between atoms: _365  and  _368
REMARK  148  A    between atoms: _368  and  _369
REMARK  149  A    between atoms: _372  and  _374
REMARK  150  A    between atoms: _374  and  _375
REMARK  151  A    between atoms: _377  and  _379
REMARK  152  A    between atoms: _379  and  _380
REMARK  153  A    between atoms: _383  and  _385
REMARK  154  A    between atoms: _385  and  _386
REMARK  155  A    between atoms: _385  and  _388
REMARK  156  A    between atoms: _388  and  _389
REMARK  157  A    between atoms: _392  and  _394
REMARK  158  A    between atoms: _394  and  _395
REMARK  159  A    between atoms: _394  and  _397
REMARK  160  A    between atoms: _397  and  _398
REMARK  161  A    between atoms: _401  and  _403
REMARK  162  A    between atoms: _403  and  _404
REMARK  163  A    between atoms: _403  and  _406
REMARK  164  A    between atoms: _406  and  _407
REMARK  165  A    between atoms: _410  and  _412
REMARK  166  A    between atoms: _412  and  _413
REMARK  167  A    between atoms: _412  and  _415
REMARK  168  A    between atoms: _418  and  _420
REMARK  169  A    between atoms: _420  and  _421
REMARK  170  A    between atoms: _420  and  _423
REMARK  171  A    between atoms: _423  and  _424
REMARK  172  A    between atoms: _427  and  _429
REMARK  173  A    between atoms: _429  and  _430
REMARK  174  A    between atoms: _429  and  _432
REMARK  175  A    between atoms: _432  and  _433
REMARK  176  A    between atoms: _433  and  _434
REMARK  177  A    between atoms: _434  and  _435
REMARK  178  A    between atoms: _435  and  _436
REMARK  179  A    between atoms: _440  and  _442
REMARK  180  A    between atoms: _442  and  _443
REMARK  181  A    between atoms: _442  and  _445
REMARK  182  A    between atoms: _445  and  _446
REMARK  183  A    between atoms: _446  and  _447
REMARK  184  A    between atoms: _449  and  _451
REMARK  185  A    between atoms: _451  and  _452
REMARK  186  A    between atoms: _451  and  _454
REMARK  187  A    between atoms: _454  and  _455
REMARK  188  A    between atoms: _458  and  _460
REMARK  189  A    between atoms: _460  and  _461
REMARK  190  A    between atoms: _463  and  _465
REMARK  191  A    between atoms: _465  and  _466
REMARK  192  A    between atoms: _468  and  _470
REMARK  193  A    between atoms: _470  and  _471
REMARK  194  A    between atoms: _470  and  _473
REMARK  195  A    between atoms: _473  and  _474
REMARK  196  A    between atoms: _477  and  _479
REMARK  197  A    between atoms: _479  and  _480
REMARK  198  A    between atoms: _482  and  _484
REMARK  199  A    between atoms: _484  and  _485
REMARK  200  A    between atoms: _487  and  _489
REMARK  201  A    between atoms: _489  and  _490
REMARK  202  A    between atoms: _489  and  _492
REMARK  203  A    between atoms: _492  and  _493
REMARK  204  A    between atoms: _496  and  _498
REMARK  205  A    between atoms: _498  and  _499
REMARK  206  A    between atoms: _498  and  _501
REMARK  207  A    between atoms: _504  and  _506
REMARK  208  A    between atoms: _506  and  _507
REMARK  209  A    between atoms: _506  and  _509
REMARK  210  A    between atoms: _509  and  _510
REMARK  211  A    between atoms: _514  and  _515
REMARK  212  A    between atoms: _520  and  _522
REMARK  213  A    between atoms: _522  and  _523
REMARK  214  A    between atoms: _522  and  _525
REMARK  215  A    between atoms: _525  and  _526
REMARK  216  A    between atoms: _530  and  _531
REMARK  217  A    between atoms: _536  and  _538
REMARK  218  A    between atoms: _538  and  _539
REMARK  219  A    between atoms: _542  and  _544
REMARK  220  A    between atoms: _544  and  _545
REMARK  221  A    between atoms: _544  and  _547
REMARK  222  A    between atoms: _547  and  _548
REMARK  223  A    between atoms: _553  and  _555
REMARK  224  A    between atoms: _555  and  _556
REMARK  225  A    between atoms: _555  and  _558
REMARK  226  A    between atoms: _558  and  _559
REMARK  227  A    between atoms: _562  and  _564
REMARK  228  A    between atoms: _564  and  _565
REMARK  229  A    between atoms: _564  and  _567
REMARK  230  A    between atoms: _567  and  _568
REMARK  231  A    between atoms: _571  and  _573
REMARK  232  A    between atoms: _573  and  _574
REMARK  233  A    between atoms: _576  and  _578
REMARK  234  A    between atoms: _578  and  _579
REMARK  235  A    between atoms: _578  and  _581
REMARK  236  A    between atoms: _581  and  _582
REMARK  237  A    between atoms: _582  and  _583
REMARK  238  A    between atoms: _583  and  _584
REMARK                            x       y       z     vdW  Elec       q    Type
REMARK                         _______ _______ _______ _____ _____    ______ ____
ROOT
ATOM      1  O   HOH     1      14.500 -35.230  18.896  0.00  0.00    +0.000 OA
ENDROOT
TORSDOF 0
REMARK  Name = ../refined-set-2016/2fle/2fle_pocket.pdb
REMARK  238 active torsions:
REMARK  status: ('A' for Active; 'I' for Inactive)
REMARK    1  A    between atoms: _1  and  _3
REMARK    2  A    between atoms: _3  and  _4
REMARK    3  A    between atoms: _3  and  _6
REMARK    4  A    between atoms: _6  and  _7
REMARK    5  A    between atoms: _7  and  _8
REMARK    6  A    between atoms: _8  and  _9
REMARK    7  A    between atoms: _19  and  _20
REMARK    8  A    between atoms: _25  and  _27
REMARK    9  A    between atoms: _27  and  _28
REMARK   10  A    between atoms: _27  and  _30
REMARK   11  A    between atoms: _30  and  _31
REMARK   12  A    between atoms: _34  and  _36
REMARK   13  A    between atoms: _36  and  _37
REMARK   14  A    between atoms: _36  and  _39
REMARK   15  A    between atoms: _39  and  _40
REMARK   16  A    between atoms: _43  and  _45
REMARK   17  A    between atoms: _45  and  _46
REMARK   18  A    between atoms: _45  and  _48
REMARK   19  A    between atoms: _48  and  _49
REMARK   20  A    between atoms: _52  and  _54
REMARK   21  A    between atoms: _54  and  _55
REMARK   22  A    between atoms: _54  and  _57
REMARK   23  A    between atoms: _57  and  _58
REMARK   24  A    between atoms: _61  and  _63
REMARK   25  A    between atoms: _63  and  _64
REMARK   26  A    between atoms: _63  and  _66
REMARK   27  A    between atoms: _66  and  _67
REMARK   28  A    between atoms: _70  and  _72
REMARK   29  A    between atoms: _72  and  _73
REMARK   30  A    between atoms: _75  and  _77
REMARK   31  A    between atoms: _77  and  _78
REMARK   32  A    between atoms: _81  and  _83
REMARK   33  A    between atoms: _83  and  _84
REMARK   34  A    between atoms: _83  and  _86
REMARK   35  A    between atoms: _86  and  _87
REMARK   36  A    between atoms: _90  and  _92
REMARK   37  A    between atoms: _92  and  _93
REMARK   38  A    between atoms: _92  and  _95
REMARK   39  A    between atoms: _95  and  _96
REMARK   40  A    between atoms: _99  and  _101
REMARK   41  A    between atoms: _101  and  _102
REMARK   42  A    between atoms: _101  and  _104
REMARK   43  A    between atoms: _104  and  _105
REMARK   44  A    between atoms: _108  and  _110
REMARK   45  A    between atoms: _110  and  _111
REMARK   46  A    between atoms: _110  and  _113
REMARK   47  A    between atoms: _116  and  _118
REMARK   48  A    between atoms: _118  and  _119
REMARK   49  A    between atoms: _118  and  _121
REMARK   50  A    between atoms: _121  and  _122
REMARK   51  A    between atoms: _125  and  _127
REMARK   52  A    between atoms: _127  and  _128
REMARK   53  A    between atoms: _127  and  _130
REMARK   54  A    between atoms: _130  and  _131
REMARK   55  A    between atoms: _131  and  _132
REMARK   56  A    between atoms: _132  and  _133
REMARK   57  A    between atoms: _133  and  _134
REMARK   58  A    between atoms: _138  and  _140
REMARK   59  A    between atoms: _140  and  _141
REMARK   60  A    between atoms: _140  and  _143
REMARK   61  A    between atoms: _143  and  _144
REMARK   62  A    between atoms: _144  and  _145
REMARK   63  A    between atoms: _147  and  _149
REMARK   64  A    between atoms: _149  and  _150
REMARK   65  A    between atoms: _149  and  _152
REMARK   66  A    between atoms: _152  and  _153
REMARK   67  A    between atoms: _156  and  _158
REMARK   68  A    between atoms: _158  and  _159
REMARK   69  A    between atoms: _161  and  _163
REMARK   70  A    between atoms: _163  and  _164
REMARK   71  A    between atoms: _166  and  _168
REMARK   72  A    between atoms: _168  and  _169
REMARK   73  A    between atoms: _168  and  _171
REMARK   74  A    between atoms: _171  and  _172
REMARK   75  A    between atoms: _175  and  _177
REMARK   76  A    between atoms: _177  and  _178
REMARK   77  A    between atoms: _180  and  _182
REMARK   78  A    between atoms: _182  and  _183
REMARK   79  A    between atoms: _185  and  _187
REMARK   80  A    between atoms: _187  and  _188
REMARK   81  A    between atoms: _187  and  _190
REMARK   82  A    between atoms: _190  and  _191
REMARK   83  A    between atoms: _197  and  _199
REMARK   84  A    between atoms: _199  and  _200
REMARK   85  A    between atoms: _199  and  _202
REMARK   86  A    between atoms: _202  and  _203
REMARK   87  A    between atoms: _206  and  _208
REMARK   88  A    between atoms: _208  and  _209
REMARK   89  A    between atoms: _208  and  _211
REMARK   90  A    between atoms: _214  and  _216
REMARK   91  A    between atoms: _216  and  _217
REMARK   92  A    between atoms: _216  and  _219
REMARK   93  A    between atoms: _219  and  _220
REMARK   94  A    between atoms: _224  and  _225
REMARK   95  A    between atoms: _230  and  _232
REMARK   96  A    between atoms: _232  and  _233
REMARK   97  A    between atoms: _232  and  _235
REMARK   98  A    between atoms: _235  and  _236
REMARK   99  A    between atoms: _240  and  _241
REMARK  100  A    between atoms: _246  and  _248
REMARK  101  A    between atoms: _248  and  _249
REMARK  102  A    between atoms: _252  and  _254
REMARK  103  A    between atoms: _254  and  _255
REMARK  104  A    between atoms: _254  and  _257
REMARK  105  A    between atoms: _257  and  _258
REMARK  106  A    between atoms: _263  and  _265
REMARK  107  A    between atoms: _265  and  _266
REMARK  108  A    between atoms: _265  and  _268
REMARK  109  A    between atoms: _268  and  _269
REMARK  110  A    between atoms: _272  and  _274
REMARK  111  A    between atoms: _274  and  _275
REMARK  112  A    between atoms: _274  and  _277
REMARK  113  A    between atoms: _277  and  _278
REMARK  114  A    between atoms: _281  and  _283
REMARK  115  A    between atoms: _283  and  _284
REMARK  116  A    between atoms: _286  and  _288
REMARK  117  A    between atoms: _288  and  _289
REMARK  118  A    between atoms: _288  and  _291
REMARK  119  A    between atoms: _291  and  _292
REMARK  120  A    between atoms: _292  and  _293
REMARK  121  A    between atoms: _293  and  _294
REMARK  122  A    between atoms: _303  and  _305
REMARK  123  A    between atoms: _305  and  _306
REMARK  124  A    between atoms: _305  and  _308
REMARK  125  A    between atoms: _308  and  _309
REMARK  126  A    between atoms: _309  and  _310
REMARK  127  A    between atoms: _310  and  _311
REMARK  128  A    between atoms: _321  and  _322
REMARK  129  A    between atoms: _327  and  _329
REMARK  130  A    between atoms: _329  and  _330
REMARK  131  A    between atoms: _329  and  _332
REMARK  132  A    between atoms: _332  and  _333
REMARK  133  A    between atoms: _336  and  _338
REMARK  134  A    between atoms: _338  and  _339
REMARK  135  A    between atoms: _338  and  _341
REMARK  136  A    between atoms: _341  and  _342
REMARK  137  A    between atoms: _345  and  _347
REMARK  138  A    between atoms: _347  and  _348
REMARK  139  A    between atoms: _347  and  _350
REMARK  140  A    between atoms: _350  and  _351
REMARK  141  A    between atoms: _354  and  _356
REMARK  142  A    between atoms: _356  and  _357
REMARK  143  A    between atoms: _356  and  _359
REMARK  144  A    between atoms: _359  and  _360
REMARK  145  A    between atoms: _363  and  _365
REMARK  146  A    between atoms: _365  and  _366
REMARK  147  A    between atoms: _365  and  _368
REMARK  148  A    between atoms: _368  and  _369
REMARK  149  A    between atoms: _372  and  _374
REMARK  150  A    between atoms: _374  and  _375
REMARK  151  A    between atoms: _377  and  _379
REMARK  152  A    between atoms: _379  and  _380
REMARK  153  A    between atoms: _383  and  _385
REMARK  154  A    between atoms: _385  and  _386
REMARK  155  A    between atoms: _385  and  _388
REMARK  156  A    between atoms: _388  and  _389
REMARK  157  A    between atoms: _392  and  _394
REMARK  158  A    between atoms: _394  and  _395
REMARK  159  A    between atoms: _394  and  _397
REMARK  160  A    between atoms: _397  and  _398
REMARK  161  A    between atoms: _401  and  _403
REMARK  162  A    between atoms: _403  and  _404
REMARK  163  A    between atoms: _403  and  _406
REMARK  164  A    between atoms: _406  and  _407
REMARK  165  A    between atoms: _410  and  _412
REMARK  166  A    between atoms: _412  and  _413
REMARK  167  A    between atoms: _412  and  _415
REMARK  168  A    between atoms: _418  and  _420
REMARK  169  A    between atoms: _420  and  _421
REMARK  170  A    between atoms: _420  and  _423
REMARK  171  A    between atoms: _423  and  _424
REMARK  172  A    between atoms: _427  and  _429
REMARK  173  A    between atoms: _429  and  _430
REMARK  174  A    between atoms: _429  and  _432
REMARK  175  A    between atoms: _432  and  _433
REMARK  176  A    between atoms: _433  and  _434
REMARK  177  A    between atoms: _434  and  _435
REMARK  178  A    between atoms: _435  and  _436
REMARK  179  A    between atoms: _440  and  _442
REMARK  180  A    between atoms: _442  and  _443
REMARK  181  A    between atoms: _442  and  _445
REMARK  182  A    between atoms: _445  and  _446
REMARK  183  A    between atoms: _446  and  _447
REMARK  184  A    between atoms: _449  and  _451
REMARK  185  A    between atoms: _451  and  _452
REMARK  186  A    between atoms: _451  and  _454
REMARK  187  A    between atoms: _454  and  _455
REMARK  188  A    between atoms: _458  and  _460
REMARK  189  A    between atoms: _460  and  _461
REMARK  190  A    between atoms: _463  and  _465
REMARK  191  A    between atoms: _465  and  _466
REMARK  192  A    between atoms: _468  and  _470
REMARK  193  A    between atoms: _470  and  _471
REMARK  194  A    between atoms: _470  and  _473
REMARK  195  A    between atoms: _473  and  _474
REMARK  196  A    between atoms: _477  and  _479
REMARK  197  A    between atoms: _479  and  _480
REMARK  198  A    between atoms: _482  and  _484
REMARK  199  A    between atoms: _484  and  _485
REMARK  200  A    between atoms: _487  and  _489
REMARK  201  A    between atoms: _489  and  _490
REMARK  202  A    between atoms: _489  and  _492
REMARK  203  A    between atoms: _492  and  _493
REMARK  204  A    between atoms: _496  and  _498
REMARK  205  A    between atoms: _498  and  _499
REMARK  206  A    between atoms: _498  and  _501
REMARK  207  A    between atoms: _504  and  _506
REMARK  208  A    between atoms: _506  and  _507
REMARK  209  A    between atoms: _506  and  _509
REMARK  210  A    between atoms: _509  and  _510
REMARK  211  A    between atoms: _514  and  _515
REMARK  212  A    between atoms: _520  and  _522
REMARK  213  A    between atoms: _522  and  _523
REMARK  214  A    between atoms: _522  and  _525
REMARK  215  A    between atoms: _525  and  _526
REMARK  216  A    between atoms: _530  and  _531
REMARK  217  A    between atoms: _536  and  _538
REMARK  218  A    between atoms: _538  and  _539
REMARK  219  A    between atoms: _542  and  _544
REMARK  220  A    between atoms: _544  and  _545
REMARK  221  A    between atoms: _544  and  _547
REMARK  222  A    between atoms: _547  and  _548
REMARK  223  A    between atoms: _553  and  _555
REMARK  224  A    between atoms: _555  and  _556
REMARK  225  A    between atoms: _555  and  _558
REMARK  226  A    between atoms: _558  and  _559
REMARK  227  A    between atoms: _562  and  _564
REMARK  228  A    between atoms: _564  and  _565
REMARK  229  A    between atoms: _564  and  _567
REMARK  230  A    between atoms: _567  and  _568
REMARK  231  A    between atoms: _571  and  _573
REMARK  232  A    between atoms: _573  and  _574
REMARK  233  A    between atoms: _576  and  _578
REMARK  234  A    between atoms: _578  and  _579
REMARK  235  A    between atoms: _578  and  _581
REMARK  236  A    between atoms: _581  and  _582
REMARK  237  A    between atoms: _582  and  _583
REMARK  238  A    between atoms: _583  and  _584
REMARK                            x       y       z     vdW  Elec       q    Type
REMARK                         _______ _______ _______ _____ _____    ______ ____
ROOT
ATOM      1  O   HOH     1      30.758 -28.232   9.826  0.00  0.00    +0.000 OA
ENDROOT
TORSDOF 0
REMARK  Name = ../refined-set-2016/2fle/2fle_pocket.pdb
REMARK  238 active torsions:
REMARK  status: ('A' for Active; 'I' for Inactive)
REMARK    1  A    between atoms: _1  and  _3
REMARK    2  A    between atoms: _3  and  _4
REMARK    3  A    between atoms: _3  and  _6
REMARK    4  A    between atoms: _6  and  _7
REMARK    5  A    between atoms: _7  and  _8
REMARK    6  A    between atoms: _8  and  _9
REMARK    7  A    between atoms: _19  and  _20
REMARK    8  A    between atoms: _25  and  _27
REMARK    9  A    between atoms: _27  and  _28
REMARK   10  A    between atoms: _27  and  _30
REMARK   11  A    between atoms: _30  and  _31
REMARK   12  A    between atoms: _34  and  _36
REMARK   13  A    between atoms: _36  and  _37
REMARK   14  A    between atoms: _36  and  _39
REMARK   15  A    between atoms: _39  and  _40
REMARK   16  A    between atoms: _43  and  _45
REMARK   17  A    between atoms: _45  and  _46
REMARK   18  A    between atoms: _45  and  _48
REMARK   19  A    between atoms: _48  and  _49
REMARK   20  A    between atoms: _52  and  _54
REMARK   21  A    between atoms: _54  and  _55
REMARK   22  A    between atoms: _54  and  _57
REMARK   23  A    between atoms: _57  and  _58
REMARK   24  A    between atoms: _61  and  _63
REMARK   25  A    between atoms: _63  and  _64
REMARK   26  A    between atoms: _63  and  _66
REMARK   27  A    between atoms: _66  and  _67
REMARK   28  A    between atoms: _70  and  _72
REMARK   29  A    between atoms: _72  and  _73
REMARK   30  A    between atoms: _75  and  _77
REMARK   31  A    between atoms: _77  and  _78
REMARK   32  A    between atoms: _81  and  _83
REMARK   33  A    between atoms: _83  and  _84
REMARK   34  A    between atoms: _83  and  _86
REMARK   35  A    between atoms: _86  and  _87
REMARK   36  A    between atoms: _90  and  _92
REMARK   37  A    between atoms: _92  and  _93
REMARK   38  A    between atoms: _92  and  _95
REMARK   39  A    between atoms: _95  and  _96
REMARK   40  A    between atoms: _99  and  _101
REMARK   41  A    between atoms: _101  and  _102
REMARK   42  A    between atoms: _101  and  _104
REMARK   43  A    between atoms: _104  and  _105
REMARK   44  A    between atoms: _108  and  _110
REMARK   45  A    between atoms: _110  and  _111
REMARK   46  A    between atoms: _110  and  _113
REMARK   47  A    between atoms: _116  and  _118
REMARK   48  A    between atoms: _118  and  _119
REMARK   49  A    between atoms: _118  and  _121
REMARK   50  A    between atoms: _121  and  _122
REMARK   51  A    between atoms: _125  and  _127
REMARK   52  A    between atoms: _127  and  _128
REMARK   53  A    between atoms: _127  and  _130
REMARK   54  A    between atoms: _130  and  _131
REMARK   55  A    between atoms: _131  and  _132
REMARK   56  A    between atoms: _132  and  _133
REMARK   57  A    between atoms: _133  and  _134
REMARK   58  A    between atoms: _138  and  _140
REMARK   59  A    between atoms: _140  and  _141
REMARK   60  A    between atoms: _140  and  _143
REMARK   61  A    between atoms: _143  and  _144
REMARK   62  A    between atoms: _144  and  _145
REMARK   63  A    between atoms: _147  and  _149
REMARK   64  A    between atoms: _149  and  _150
REMARK   65  A    between atoms: _149  and  _152
REMARK   66  A    between atoms: _152  and  _153
REMARK   67  A    between atoms: _156  and  _158
REMARK   68  A    between atoms: _158  and  _159
REMARK   69  A    between atoms: _161  and  _163
REMARK   70  A    between atoms: _163  and  _164
REMARK   71  A    between atoms: _166  and  _168
REMARK   72  A    between atoms: _168  and  _169
REMARK   73  A    between atoms: _168  and  _171
REMARK   74  A    between atoms: _171  and  _172
REMARK   75  A    between atoms: _175  and  _177
REMARK   76  A    between atoms: _177  and  _178
REMARK   77  A    between atoms: _180  and  _182
REMARK   78  A    between atoms: _182  and  _183
REMARK   79  A    between atoms: _185  and  _187
REMARK   80  A    between atoms: _187  and  _188
REMARK   81  A    between atoms: _187  and  _190
REMARK   82  A    between atoms: _190  and  _191
REMARK   83  A    between atoms: _197  and  _199
REMARK   84  A    between atoms: _199  and  _200
REMARK   85  A    between atoms: _199  and  _202
REMARK   86  A    between atoms: _202  and  _203
REMARK   87  A    between atoms: _206  and  _208
REMARK   88  A    between atoms: _208  and  _209
REMARK   89  A    between atoms: _208  and  _211
REMARK   90  A    between atoms: _214  and  _216
REMARK   91  A    between atoms: _216  and  _217
REMARK   92  A    between atoms: _216  and  _219
REMARK   93  A    between atoms: _219  and  _220
REMARK   94  A    between atoms: _224  and  _225
REMARK   95  A    between atoms: _230  and  _232
REMARK   96  A    between atoms: _232  and  _233
REMARK   97  A    between atoms: _232  and  _235
REMARK   98  A    between atoms: _235  and  _236
REMARK   99  A    between atoms: _240  and  _241
REMARK  100  A    between atoms: _246  and  _248
REMARK  101  A    between atoms: _248  and  _249
REMARK  102  A    between atoms: _252  and  _254
REMARK  103  A    between atoms: _254  and  _255
REMARK  104  A    between atoms: _254  and  _257
REMARK  105  A    between atoms: _257  and  _258
REMARK  106  A    between atoms: _263  and  _265
REMARK  107  A    between atoms: _265  and  _266
REMARK  108  A    between atoms: _265  and  _268
REMARK  109  A    between atoms: _268  and  _269
REMARK  110  A    between atoms: _272  and  _274
REMARK  111  A    between atoms: _274  and  _275
REMARK  112  A    between atoms: _274  and  _277
REMARK  113  A    between atoms: _277  and  _278
REMARK  114  A    between atoms: _281  and  _283
REMARK  115  A    between atoms: _283  and  _284
REMARK  116  A    between atoms: _286  and  _288
REMARK  117  A    between atoms: _288  and  _289
REMARK  118  A    between atoms: _288  and  _291
REMARK  119  A    between atoms: _291  and  _292
REMARK  120  A    between atoms: _292  and  _293
REMARK  121  A    between atoms: _293  and  _294
REMARK  122  A    between atoms: _303  and  _305
REMARK  123  A    between atoms: _305  and  _306
REMARK  124  A    between atoms: _305  and  _308
REMARK  125  A    between atoms: _308  and  _309
REMARK  126  A    between atoms: _309  and  _310
REMARK  127  A    between atoms: _310  and  _311
REMARK  128  A    between atoms: _321  and  _322
REMARK  129  A    between atoms: _327  and  _329
REMARK  130  A    between atoms: _329  and  _330
REMARK  131  A    between atoms: _329  and  _332
REMARK  132  A    between atoms: _332  and  _333
REMARK  133  A    between atoms: _336  and  _338
REMARK  134  A    between atoms: _338  and  _339
REMARK  135  A    between atoms: _338  and  _341
REMARK  136  A    between atoms: _341  and  _342
REMARK  137  A    between atoms: _345  and  _347
REMARK  138  A    between atoms: _347  and  _348
REMARK  139  A    between atoms: _347  and  _350
REMARK  140  A    between atoms: _350  and  _351
REMARK  141  A    between atoms: _354  and  _356
REMARK  142  A    between atoms: _356  and  _357
REMARK  143  A    between atoms: _356  and  _359
REMARK  144  A    between atoms: _359  and  _360
REMARK  145  A    between atoms: _363  and  _365
REMARK  146  A    between atoms: _365  and  _366
REMARK  147  A    between atoms: _365  and  _368
REMARK  148  A    between atoms: _368  and  _369
REMARK  149  A    between atoms: _372  and  _374
REMARK  150  A    between atoms: _374  and  _375
REMARK  151  A    between atoms: _377  and  _379
REMARK  152  A    between atoms: _379  and  _380
REMARK  153  A    between atoms: _383  and  _385
REMARK  154  A    between atoms: _385  and  _386
REMARK  155  A    between atoms: _385  and  _388
REMARK  156  A    between atoms: _388  and  _389
REMARK  157  A    between atoms: _392  and  _394
REMARK  158  A    between atoms: _394  and  _395
REMARK  159  A    between atoms: _394  and  _397
REMARK  160  A    between atoms: _397  and  _398
REMARK  161  A    between atoms: _401  and  _403
REMARK  162  A    between atoms: _403  and  _404
REMARK  163  A    between atoms: _403  and  _406
REMARK  164  A    between atoms: _406  and  _407
REMARK  165  A    between atoms: _410  and  _412
REMARK  166  A    between atoms: _412  and  _413
REMARK  167  A    between atoms: _412  and  _415
REMARK  168  A    between atoms: _418  and  _420
REMARK  169  A    between atoms: _420  and  _421
REMARK  170  A    between atoms: _420  and  _423
REMARK  171  A    between atoms: _423  and  _424
REMARK  172  A    between atoms: _427  and  _429
REMARK  173  A    between atoms: _429  and  _430
REMARK  174  A    between atoms: _429  and  _432
REMARK  175  A    between atoms: _432  and  _433
REMARK  176  A    between atoms: _433  and  _434
REMARK  177  A    between atoms: _434  and  _435
REMARK  178  A    between atoms: _435  and  _436
REMARK  179  A    between atoms: _440  and  _442
REMARK  180  A    between atoms: _442  and  _443
REMARK  181  A    between atoms: _442  and  _445
REMARK  182  A    between atoms: _445  and  _446
REMARK  183  A    between atoms: _446  and  _447
REMARK  184  A    between atoms: _449  and  _451
REMARK  185  A    between atoms: _451  and  _452
REMARK  186  A    between atoms: _451  and  _454
REMARK  187  A    between atoms: _454  and  _455
REMARK  188  A    between atoms: _458  and  _460
REMARK  189  A    between atoms: _460  and  _461
REMARK  190  A    between atoms: _463  and  _465
REMARK  191  A    between atoms: _465  and  _466
REMARK  192  A    between atoms: _468  and  _470
REMARK  193  A    between atoms: _470  and  _471
REMARK  194  A    between atoms: _470  and  _473
REMARK  195  A    between atoms: _473  and  _474
REMARK  196  A    between atoms: _477  and  _479
REMARK  197  A    between atoms: _479  and  _480
REMARK  198  A    between atoms: _482  and  _484
REMARK  199  A    between atoms: _484  and  _485
REMARK  200  A    between atoms: _487  and  _489
REMARK  201  A    between atoms: _489  and  _490
REMARK  202  A    between atoms: _489  and  _492
REMARK  203  A    between atoms: _492  and  _493
REMARK  204  A    between atoms: _496  and  _498
REMARK  205  A    between atoms: _498  and  _499
REMARK  206  A    between atoms: _498  and  _501
REMARK  207  A    between atoms: _504  and  _506
REMARK  208  A    between atoms: _506  and  _507
REMARK  209  A    between atoms: _506  and  _509
REMARK  210  A    between atoms: _509  and  _510
REMARK  211  A    between atoms: _514  and  _515
REMARK  212  A    between atoms: _520  and  _522
REMARK  213  A    between atoms: _522  and  _523
REMARK  214  A    between atoms: _522  and  _525
REMARK  215  A    between atoms: _525  and  _526
REMARK  216  A    between atoms: _530  and  _531
REMARK  217  A    between atoms: _536  and  _538
REMARK  218  A    between atoms: _538  and  _539
REMARK  219  A    between atoms: _542  and  _544
REMARK  220  A    between atoms: _544  and  _545
REMARK  221  A    between atoms: _544  and  _547
REMARK  222  A    between atoms: _547  and  _548
REMARK  223  A    between atoms: _553  and  _555
REMARK  224  A    between atoms: _555  and  _556
REMARK  225  A    between atoms: _555  and  _558
REMARK  226  A    between atoms: _558  and  _559
REMARK  227  A    between atoms: _562  and  _564
REMARK  228  A    between atoms: _564  and  _565
REMARK  229  A    between atoms: _564  and  _567
REMARK  230  A    between atoms: _567  and  _568
REMARK  231  A    between atoms: _571  and  _573
REMARK  232  A    between atoms: _573  and  _574
REMARK  233  A    between atoms: _576  and  _578
REMARK  234  A    between atoms: _578  and  _579
REMARK  235  A    between atoms: _578  and  _581
REMARK  236  A    between atoms: _581  and  _582
REMARK  237  A    between atoms: _582  and  _583
REMARK  238  A    between atoms: _583  and  _584
REMARK                            x       y       z     vdW  Elec       q    Type
REMARK                         _______ _______ _______ _____ _____    ______ ____
ROOT
ATOM      1  O   HOH     1      31.950 -30.309  16.089  0.00  0.00    +0.000 OA
ENDROOT
TORSDOF 0
REMARK  Name = ../refined-set-2016/2fle/2fle_pocket.pdb
REMARK  238 active torsions:
REMARK  status: ('A' for Active; 'I' for Inactive)
REMARK    1  A    between atoms: _1  and  _3
REMARK    2  A    between atoms: _3  and  _4
REMARK    3  A    between atoms: _3  and  _6
REMARK    4  A    between atoms: _6  and  _7
REMARK    5  A    between atoms: _7  and  _8
REMARK    6  A    between atoms: _8  and  _9
REMARK    7  A    between atoms: _19  and  _20
REMARK    8  A    between atoms: _25  and  _27
REMARK    9  A    between atoms: _27  and  _28
REMARK   10  A    between atoms: _27  and  _30
REMARK   11  A    between atoms: _30  and  _31
REMARK   12  A    between atoms: _34  and  _36
REMARK   13  A    between atoms: _36  and  _37
REMARK   14  A    between atoms: _36  and  _39
REMARK   15  A    between atoms: _39  and  _40
REMARK   16  A    between atoms: _43  and  _45
REMARK   17  A    between atoms: _45  and  _46
REMARK   18  A    between atoms: _45  and  _48
REMARK   19  A    between atoms: _48  and  _49
REMARK   20  A    between atoms: _52  and  _54
REMARK   21  A    between atoms: _54  and  _55
REMARK   22  A    between atoms: _54  and  _57
REMARK   23  A    between atoms: _57  and  _58
REMARK   24  A    between atoms: _61  and  _63
REMARK   25  A    between atoms: _63  and  _64
REMARK   26  A    between atoms: _63  and  _66
REMARK   27  A    between atoms: _66  and  _67
REMARK   28  A    between atoms: _70  and  _72
REMARK   29  A    between atoms: _72  and  _73
REMARK   30  A    between atoms: _75  and  _77
REMARK   31  A    between atoms: _77  and  _78
REMARK   32  A    between atoms: _81  and  _83
REMARK   33  A    between atoms: _83  and  _84
REMARK   34  A    between atoms: _83  and  _86
REMARK   35  A    between atoms: _86  and  _87
REMARK   36  A    between atoms: _90  and  _92
REMARK   37  A    between atoms: _92  and  _93
REMARK   38  A    between atoms: _92  and  _95
REMARK   39  A    between atoms: _95  and  _96
REMARK   40  A    between atoms: _99  and  _101
REMARK   41  A    between atoms: _101  and  _102
REMARK   42  A    between atoms: _101  and  _104
REMARK   43  A    between atoms: _104  and  _105
REMARK   44  A    between atoms: _108  and  _110
REMARK   45  A    between atoms: _110  and  _111
REMARK   46  A    between atoms: _110  and  _113
REMARK   47  A    between atoms: _116  and  _118
REMARK   48  A    between atoms: _118  and  _119
REMARK   49  A    between atoms: _118  and  _121
REMARK   50  A    between atoms: _121  and  _122
REMARK   51  A    between atoms: _125  and  _127
REMARK   52  A    between atoms: _127  and  _128
REMARK   53  A    between atoms: _127  and  _130
REMARK   54  A    between atoms: _130  and  _131
REMARK   55  A    between atoms: _131  and  _132
REMARK   56  A    between atoms: _132  and  _133
REMARK   57  A    between atoms: _133  and  _134
REMARK   58  A    between atoms: _138  and  _140
REMARK   59  A    between atoms: _140  and  _141
REMARK   60  A    between atoms: _140  and  _143
REMARK   61  A    between atoms: _143  and  _144
REMARK   62  A    between atoms: _144  and  _145
REMARK   63  A    between atoms: _147  and  _149
REMARK   64  A    between atoms: _149  and  _150
REMARK   65  A    between atoms: _149  and  _152
REMARK   66  A    between atoms: _152  and  _153
REMARK   67  A    between atoms: _156  and  _158
REMARK   68  A    between atoms: _158  and  _159
REMARK   69  A    between atoms: _161  and  _163
REMARK   70  A    between atoms: _163  and  _164
REMARK   71  A    between atoms: _166  and  _168
REMARK   72  A    between atoms: _168  and  _169
REMARK   73  A    between atoms: _168  and  _171
REMARK   74  A    between atoms: _171  and  _172
REMARK   75  A    between atoms: _175  and  _177
REMARK   76  A    between atoms: _177  and  _178
REMARK   77  A    between atoms: _180  and  _182
REMARK   78  A    between atoms: _182  and  _183
REMARK   79  A    between atoms: _185  and  _187
REMARK   80  A    between atoms: _187  and  _188
REMARK   81  A    between atoms: _187  and  _190
REMARK   82  A    between atoms: _190  and  _191
REMARK   83  A    between atoms: _197  and  _199
REMARK   84  A    between atoms: _199  and  _200
REMARK   85  A    between atoms: _199  and  _202
REMARK   86  A    between atoms: _202  and  _203
REMARK   87  A    between atoms: _206  and  _208
REMARK   88  A    between atoms: _208  and  _209
REMARK   89  A    between atoms: _208  and  _211
REMARK   90  A    between atoms: _214  and  _216
REMARK   91  A    between atoms: _216  and  _217
REMARK   92  A    between atoms: _216  and  _219
REMARK   93  A    between atoms: _219  and  _220
REMARK   94  A    between atoms: _224  and  _225
REMARK   95  A    between atoms: _230  and  _232
REMARK   96  A    between atoms: _232  and  _233
REMARK   97  A    between atoms: _232  and  _235
REMARK   98  A    between atoms: _235  and  _236
REMARK   99  A    between atoms: _240  and  _241
REMARK  100  A    between atoms: _246  and  _248
REMARK  101  A    between atoms: _248  and  _249
REMARK  102  A    between atoms: _252  and  _254
REMARK  103  A    between atoms: _254  and  _255
REMARK  104  A    between atoms: _254  and  _257
REMARK  105  A    between atoms: _257  and  _258
REMARK  106  A    between atoms: _263  and  _265
REMARK  107  A    between atoms: _265  and  _266
REMARK  108  A    between atoms: _265  and  _268
REMARK  109  A    between atoms: _268  and  _269
REMARK  110  A    between atoms: _272  and  _274
REMARK  111  A    between atoms: _274  and  _275
REMARK  112  A    between atoms: _274  and  _277
REMARK  113  A    between atoms: _277  and  _278
REMARK  114  A    between atoms: _281  and  _283
REMARK  115  A    between atoms: _283  and  _284
REMARK  116  A    between atoms: _286  and  _288
REMARK  117  A    between atoms: _288  and  _289
REMARK  118  A    between atoms: _288  and  _291
REMARK  119  A    between atoms: _291  and  _292
REMARK  120  A    between atoms: _292  and  _293
REMARK  121  A    between atoms: _293  and  _294
REMARK  122  A    between atoms: _303  and  _305
REMARK  123  A    between atoms: _305  and  _306
REMARK  124  A    between atoms: _305  and  _308
REMARK  125  A    between atoms: _308  and  _309
REMARK  126  A    between atoms: _309  and  _310
REMARK  127  A    between atoms: _310  and  _311
REMARK  128  A    between atoms: _321  and  _322
REMARK  129  A    between atoms: _327  and  _329
REMARK  130  A    between atoms: _329  and  _330
REMARK  131  A    between atoms: _329  and  _332
REMARK  132  A    between atoms: _332  and  _333
REMARK  133  A    between atoms: _336  and  _338
REMARK  134  A    between atoms: _338  and  _339
REMARK  135  A    between atoms: _338  and  _341
REMARK  136  A    between atoms: _341  and  _342
REMARK  137  A    between atoms: _345  and  _347
REMARK  138  A    between atoms: _347  and  _348
REMARK  139  A    between atoms: _347  and  _350
REMARK  140  A    between atoms: _350  and  _351
REMARK  141  A    between atoms: _354  and  _356
REMARK  142  A    between atoms: _356  and  _357
REMARK  143  A    between atoms: _356  and  _359
REMARK  144  A    between atoms: _359  and  _360
REMARK  145  A    between atoms: _363  and  _365
REMARK  146  A    between atoms: _365  and  _366
REMARK  147  A    between atoms: _365  and  _368
REMARK  148  A    between atoms: _368  and  _369
REMARK  149  A    between atoms: _372  and  _374
REMARK  150  A    between atoms: _374  and  _375
REMARK  151  A    between atoms: _377  and  _379
REMARK  152  A    between atoms: _379  and  _380
REMARK  153  A    between atoms: _383  and  _385
REMARK  154  A    between atoms: _385  and  _386
REMARK  155  A    between atoms: _385  and  _388
REMARK  156  A    between atoms: _388  and  _389
REMARK  157  A    between atoms: _392  and  _394
REMARK  158  A    between atoms: _394  and  _395
REMARK  159  A    between atoms: _394  and  _397
REMARK  160  A    between atoms: _397  and  _398
REMARK  161  A    between atoms: _401  and  _403
REMARK  162  A    between atoms: _403  and  _404
REMARK  163  A    between atoms: _403  and  _406
REMARK  164  A    between atoms: _406  and  _407
REMARK  165  A    between atoms: _410  and  _412
REMARK  166  A    between atoms: _412  and  _413
REMARK  167  A    between atoms: _412  and  _415
REMARK  168  A    between atoms: _418  and  _420
REMARK  169  A    between atoms: _420  and  _421
REMARK  170  A    between atoms: _420  and  _423
REMARK  171  A    between atoms: _423  and  _424
REMARK  172  A    between atoms: _427  and  _429
REMARK  173  A    between atoms: _429  and  _430
REMARK  174  A    between atoms: _429  and  _432
REMARK  175  A    between atoms: _432  and  _433
REMARK  176  A    between atoms: _433  and  _434
REMARK  177  A    between atoms: _434  and  _435
REMARK  178  A    between atoms: _435  and  _436
REMARK  179  A    between atoms: _440  and  _442
REMARK  180  A    between atoms: _442  and  _443
REMARK  181  A    between atoms: _442  and  _445
REMARK  182  A    between atoms: _445  and  _446
REMARK  183  A    between atoms: _446  and  _447
REMARK  184  A    between atoms: _449  and  _451
REMARK  185  A    between atoms: _451  and  _452
REMARK  186  A    between atoms: _451  and  _454
REMARK  187  A    between atoms: _454  and  _455
REMARK  188  A    between atoms: _458  and  _460
REMARK  189  A    between atoms: _460  and  _461
REMARK  190  A    between atoms: _463  and  _465
REMARK  191  A    between atoms: _465  and  _466
REMARK  192  A    between atoms: _468  and  _470
REMARK  193  A    between atoms: _470  and  _471
REMARK  194  A    between atoms: _470  and  _473
REMARK  195  A    between atoms: _473  and  _474
REMARK  196  A    between atoms: _477  and  _479
REMARK  197  A    between atoms: _479  and  _480
REMARK  198  A    between atoms: _482  and  _484
REMARK  199  A    between atoms: _484  and  _485
REMARK  200  A    between atoms: _487  and  _489
REMARK  201  A    between atoms: _489  and  _490
REMARK  202  A    between atoms: _489  and  _492
REMARK  203  A    between atoms: _492  and  _493
REMARK  204  A    between atoms: _496  and  _498
REMARK  205  A    between atoms: _498  and  _499
REMARK  206  A    between atoms: _498  and  _501
REMARK  207  A    between atoms: _504  and  _506
REMARK  208  A    between atoms: _506  and  _507
REMARK  209  A    between atoms: _506  and  _509
REMARK  210  A    between atoms: _509  and  _510
REMARK  211  A    between atoms: _514  and  _515
REMARK  212  A    between atoms: _520  and  _522
REMARK  213  A    between atoms: _522  and  _523
REMARK  214  A    between atoms: _522  and  _525
REMARK  215  A    between atoms: _525  and  _526
REMARK  216  A    between atoms: _530  and  _531
REMARK  217  A    between atoms: _536  and  _538
REMARK  218  A    between atoms: _538  and  _539
REMARK  219  A    between atoms: _542  and  _544
REMARK  220  A    between atoms: _544  and  _545
REMARK  221  A    between atoms: _544  and  _547
REMARK  222  A    between atoms: _547  and  _548
REMARK  223  A    between atoms: _553  and  _555
REMARK  224  A    between atoms: _555  and  _556
REMARK  225  A    between atoms: _555  and  _558
REMARK  226  A    between atoms: _558  and  _559
REMARK  227  A    between atoms: _562  and  _564
REMARK  228  A    between atoms: _564  and  _565
REMARK  229  A    between atoms: _564  and  _567
REMARK  230  A    between atoms: _567  and  _568
REMARK  231  A    between atoms: _571  and  _573
REMARK  232  A    between atoms: _573  and  _574
REMARK  233  A    between atoms: _576  and  _578
REMARK  234  A    between atoms: _578  and  _579
REMARK  235  A    between atoms: _578  and  _581
REMARK  236  A    between atoms: _581  and  _582
REMARK  237  A    between atoms: _582  and  _583
REMARK  238  A    between atoms: _583  and  _584
REMARK                            x       y       z     vdW  Elec       q    Type
REMARK                         _______ _______ _______ _____ _____    ______ ____
ROOT
ATOM      1  O   HOH     1      20.807 -47.227  16.924  0.00  0.00    +0.000 OA
ENDROOT
TORSDOF 0
REMARK  Name = ../refined-set-2016/2fle/2fle_pocket.pdb
REMARK  238 active torsions:
REMARK  status: ('A' for Active; 'I' for Inactive)
REMARK    1  A    between atoms: _1  and  _3
REMARK    2  A    between atoms: _3  and  _4
REMARK    3  A    between atoms: _3  and  _6
REMARK    4  A    between atoms: _6  and  _7
REMARK    5  A    between atoms: _7  and  _8
REMARK    6  A    between atoms: _8  and  _9
REMARK    7  A    between atoms: _19  and  _20
REMARK    8  A    between atoms: _25  and  _27
REMARK    9  A    between atoms: _27  and  _28
REMARK   10  A    between atoms: _27  and  _30
REMARK   11  A    between atoms: _30  and  _31
REMARK   12  A    between atoms: _34  and  _36
REMARK   13  A    between atoms: _36  and  _37
REMARK   14  A    between atoms: _36  and  _39
REMARK   15  A    between atoms: _39  and  _40
REMARK   16  A    between atoms: _43  and  _45
REMARK   17  A    between atoms: _45  and  _46
REMARK   18  A    between atoms: _45  and  _48
REMARK   19  A    between atoms: _48  and  _49
REMARK   20  A    between atoms: _52  and  _54
REMARK   21  A    between atoms: _54  and  _55
REMARK   22  A    between atoms: _54  and  _57
REMARK   23  A    between atoms: _57  and  _58
REMARK   24  A    between atoms: _61  and  _63
REMARK   25  A    between atoms: _63  and  _64
REMARK   26  A    between atoms: _63  and  _66
REMARK   27  A    between atoms: _66  and  _67
REMARK   28  A    between atoms: _70  and  _72
REMARK   29  A    between atoms: _72  and  _73
REMARK   30  A    between atoms: _75  and  _77
REMARK   31  A    between atoms: _77  and  _78
REMARK   32  A    between atoms: _81  and  _83
REMARK   33  A    between atoms: _83  and  _84
REMARK   34  A    between atoms: _83  and  _86
REMARK   35  A    between atoms: _86  and  _87
REMARK   36  A    between atoms: _90  and  _92
REMARK   37  A    between atoms: _92  and  _93
REMARK   38  A    between atoms: _92  and  _95
REMARK   39  A    between atoms: _95  and  _96
REMARK   40  A    between atoms: _99  and  _101
REMARK   41  A    between atoms: _101  and  _102
REMARK   42  A    between atoms: _101  and  _104
REMARK   43  A    between atoms: _104  and  _105
REMARK   44  A    between atoms: _108  and  _110
REMARK   45  A    between atoms: _110  and  _111
REMARK   46  A    between atoms: _110  and  _113
REMARK   47  A    between atoms: _116  and  _118
REMARK   48  A    between atoms: _118  and  _119
REMARK   49  A    between atoms: _118  and  _121
REMARK   50  A    between atoms: _121  and  _122
REMARK   51  A    between atoms: _125  and  _127
REMARK   52  A    between atoms: _127  and  _128
REMARK   53  A    between atoms: _127  and  _130
REMARK   54  A    between atoms: _130  and  _131
REMARK   55  A    between atoms: _131  and  _132
REMARK   56  A    between atoms: _132  and  _133
REMARK   57  A    between atoms: _133  and  _134
REMARK   58  A    between atoms: _138  and  _140
REMARK   59  A    between atoms: _140  and  _141
REMARK   60  A    between atoms: _140  and  _143
REMARK   61  A    between atoms: _143  and  _144
REMARK   62  A    between atoms: _144  and  _145
REMARK   63  A    between atoms: _147  and  _149
REMARK   64  A    between atoms: _149  and  _150
REMARK   65  A    between atoms: _149  and  _152
REMARK   66  A    between atoms: _152  and  _153
REMARK   67  A    between atoms: _156  and  _158
REMARK   68  A    between atoms: _158  and  _159
REMARK   69  A    between atoms: _161  and  _163
REMARK   70  A    between atoms: _163  and  _164
REMARK   71  A    between atoms: _166  and  _168
REMARK   72  A    between atoms: _168  and  _169
REMARK   73  A    between atoms: _168  and  _171
REMARK   74  A    between atoms: _171  and  _172
REMARK   75  A    between atoms: _175  and  _177
REMARK   76  A    between atoms: _177  and  _178
REMARK   77  A    between atoms: _180  and  _182
REMARK   78  A    between atoms: _182  and  _183
REMARK   79  A    between atoms: _185  and  _187
REMARK   80  A    between atoms: _187  and  _188
REMARK   81  A    between atoms: _187  and  _190
REMARK   82  A    between atoms: _190  and  _191
REMARK   83  A    between atoms: _197  and  _199
REMARK   84  A    between atoms: _199  and  _200
REMARK   85  A    between atoms: _199  and  _202
REMARK   86  A    between atoms: _202  and  _203
REMARK   87  A    between atoms: _206  and  _208
REMARK   88  A    between atoms: _208  and  _209
REMARK   89  A    between atoms: _208  and  _211
REMARK   90  A    between atoms: _214  and  _216
REMARK   91  A    between atoms: _216  and  _217
REMARK   92  A    between atoms: _216  and  _219
REMARK   93  A    between atoms: _219  and  _220
REMARK   94  A    between atoms: _224  and  _225
REMARK   95  A    between atoms: _230  and  _232
REMARK   96  A    between atoms: _232  and  _233
REMARK   97  A    between atoms: _232  and  _235
REMARK   98  A    between atoms: _235  and  _236
REMARK   99  A    between atoms: _240  and  _241
REMARK  100  A    between atoms: _246  and  _248
REMARK  101  A    between atoms: _248  and  _249
REMARK  102  A    between atoms: _252  and  _254
REMARK  103  A    between atoms: _254  and  _255
REMARK  104  A    between atoms: _254  and  _257
REMARK  105  A    between atoms: _257  and  _258
REMARK  106  A    between atoms: _263  and  _265
REMARK  107  A    between atoms: _265  and  _266
REMARK  108  A    between atoms: _265  and  _268
REMARK  109  A    between atoms: _268  and  _269
REMARK  110  A    between atoms: _272  and  _274
REMARK  111  A    between atoms: _274  and  _275
REMARK  112  A    between atoms: _274  and  _277
REMARK  113  A    between atoms: _277  and  _278
REMARK  114  A    between atoms: _281  and  _283
REMARK  115  A    between atoms: _283  and  _284
REMARK  116  A    between atoms: _286  and  _288
REMARK  117  A    between atoms: _288  and  _289
REMARK  118  A    between atoms: _288  and  _291
REMARK  119  A    between atoms: _291  and  _292
REMARK  120  A    between atoms: _292  and  _293
REMARK  121  A    between atoms: _293  and  _294
REMARK  122  A    between atoms: _303  and  _305
REMARK  123  A    between atoms: _305  and  _306
REMARK  124  A    between atoms: _305  and  _308
REMARK  125  A    between atoms: _308  and  _309
REMARK  126  A    between atoms: _309  and  _310
REMARK  127  A    between atoms: _310  and  _311
REMARK  128  A    between atoms: _321  and  _322
REMARK  129  A    between atoms: _327  and  _329
REMARK  130  A    between atoms: _329  and  _330
REMARK  131  A    between atoms: _329  and  _332
REMARK  132  A    between atoms: _332  and  _333
REMARK  133  A    between atoms: _336  and  _338
REMARK  134  A    between atoms: _338  and  _339
REMARK  135  A    between atoms: _338  and  _341
REMARK  136  A    between atoms: _341  and  _342
REMARK  137  A    between atoms: _345  and  _347
REMARK  138  A    between atoms: _347  and  _348
REMARK  139  A    between atoms: _347  and  _350
REMARK  140  A    between atoms: _350  and  _351
REMARK  141  A    between atoms: _354  and  _356
REMARK  142  A    between atoms: _356  and  _357
REMARK  143  A    between atoms: _356  and  _359
REMARK  144  A    between atoms: _359  and  _360
REMARK  145  A    between atoms: _363  and  _365
REMARK  146  A    between atoms: _365  and  _366
REMARK  147  A    between atoms: _365  and  _368
REMARK  148  A    between atoms: _368  and  _369
REMARK  149  A    between atoms: _372  and  _374
REMARK  150  A    between atoms: _374  and  _375
REMARK  151  A    between atoms: _377  and  _379
REMARK  152  A    between atoms: _379  and  _380
REMARK  153  A    between atoms: _383  and  _385
REMARK  154  A    between atoms: _385  and  _386
REMARK  155  A    between atoms: _385  and  _388
REMARK  156  A    between atoms: _388  and  _389
REMARK  157  A    between atoms: _392  and  _394
REMARK  158  A    between atoms: _394  and  _395
REMARK  159  A    between atoms: _394  and  _397
REMARK  160  A    between atoms: _397  and  _398
REMARK  161  A    between atoms: _401  and  _403
REMARK  162  A    between atoms: _403  and  _404
REMARK  163  A    between atoms: _403  and  _406
REMARK  164  A    between atoms: _406  and  _407
REMARK  165  A    between atoms: _410  and  _412
REMARK  166  A    between atoms: _412  and  _413
REMARK  167  A    between atoms: _412  and  _415
REMARK  168  A    between atoms: _418  and  _420
REMARK  169  A    between atoms: _420  and  _421
REMARK  170  A    between atoms: _420  and  _423
REMARK  171  A    between atoms: _423  and  _424
REMARK  172  A    between atoms: _427  and  _429
REMARK  173  A    between atoms: _429  and  _430
REMARK  174  A    between atoms: _429  and  _432
REMARK  175  A    between atoms: _432  and  _433
REMARK  176  A    between atoms: _433  and  _434
REMARK  177  A    between atoms: _434  and  _435
REMARK  178  A    between atoms: _435  and  _436
REMARK  179  A    between atoms: _440  and  _442
REMARK  180  A    between atoms: _442  and  _443
REMARK  181  A    between atoms: _442  and  _445
REMARK  182  A    between atoms: _445  and  _446
REMARK  183  A    between atoms: _446  and  _447
REMARK  184  A    between atoms: _449  and  _451
REMARK  185  A    between atoms: _451  and  _452
REMARK  186  A    between atoms: _451  and  _454
REMARK  187  A    between atoms: _454  and  _455
REMARK  188  A    between atoms: _458  and  _460
REMARK  189  A    between atoms: _460  and  _461
REMARK  190  A    between atoms: _463  and  _465
REMARK  191  A    between atoms: _465  and  _466
REMARK  192  A    between atoms: _468  and  _470
REMARK  193  A    between atoms: _470  and  _471
REMARK  194  A    between atoms: _470  and  _473
REMARK  195  A    between atoms: _473  and  _474
REMARK  196  A    between atoms: _477  and  _479
REMARK  197  A    between atoms: _479  and  _480
REMARK  198  A    between atoms: _482  and  _484
REMARK  199  A    between atoms: _484  and  _485
REMARK  200  A    between atoms: _487  and  _489
REMARK  201  A    between atoms: _489  and  _490
REMARK  202  A    between atoms: _489  and  _492
REMARK  203  A    between atoms: _492  and  _493
REMARK  204  A    between atoms: _496  and  _498
REMARK  205  A    between atoms: _498  and  _499
REMARK  206  A    between atoms: _498  and  _501
REMARK  207  A    between atoms: _504  and  _506
REMARK  208  A    between atoms: _506  and  _507
REMARK  209  A    between atoms: _506  and  _509
REMARK  210  A    between atoms: _509  and  _510
REMARK  211  A    between atoms: _514  and  _515
REMARK  212  A    between atoms: _520  and  _522
REMARK  213  A    between atoms: _522  and  _523
REMARK  214  A    between atoms: _522  and  _525
REMARK  215  A    between atoms: _525  and  _526
REMARK  216  A    between atoms: _530  and  _531
REMARK  217  A    between atoms: _536  and  _538
REMARK  218  A    between atoms: _538  and  _539
REMARK  219  A    between atoms: _542  and  _544
REMARK  220  A    between atoms: _544  and  _545
REMARK  221  A    between atoms: _544  and  _547
REMARK  222  A    between atoms: _547  and  _548
REMARK  223  A    between atoms: _553  and  _555
REMARK  224  A    between atoms: _555  and  _556
REMARK  225  A    between atoms: _555  and  _558
REMARK  226  A    between atoms: _558  and  _559
REMARK  227  A    between atoms: _562  and  _564
REMARK  228  A    between atoms: _564  and  _565
REMARK  229  A    between atoms: _564  and  _567
REMARK  230  A    between atoms: _567  and  _568
REMARK  231  A    between atoms: _571  and  _573
REMARK  232  A    between atoms: _573  and  _574
REMARK  233  A    between atoms: _576  and  _578
REMARK  234  A    between atoms: _578  and  _579
REMARK  235  A    between atoms: _578  and  _581
REMARK  236  A    between atoms: _581  and  _582
REMARK  237  A    between atoms: _582  and  _583
REMARK  238  A    between atoms: _583  and  _584
REMARK                            x       y       z     vdW  Elec       q    Type
REMARK                         _______ _______ _______ _____ _____    ______ ____
ROOT
ATOM      1  O   HOH     1      17.425 -38.608  27.119  0.00  0.00    +0.000 OA
ENDROOT
TORSDOF 0
REMARK  Name = ../refined-set-2016/2fle/2fle_pocket.pdb
REMARK  238 active torsions:
REMARK  status: ('A' for Active; 'I' for Inactive)
REMARK    1  A    between atoms: _1  and  _3
REMARK    2  A    between atoms: _3  and  _4
REMARK    3  A    between atoms: _3  and  _6
REMARK    4  A    between atoms: _6  and  _7
REMARK    5  A    between atoms: _7  and  _8
REMARK    6  A    between atoms: _8  and  _9
REMARK    7  A    between atoms: _19  and  _20
REMARK    8  A    between atoms: _25  and  _27
REMARK    9  A    between atoms: _27  and  _28
REMARK   10  A    between atoms: _27  and  _30
REMARK   11  A    between atoms: _30  and  _31
REMARK   12  A    between atoms: _34  and  _36
REMARK   13  A    between atoms: _36  and  _37
REMARK   14  A    between atoms: _36  and  _39
REMARK   15  A    between atoms: _39  and  _40
REMARK   16  A    between atoms: _43  and  _45
REMARK   17  A    between atoms: _45  and  _46
REMARK   18  A    between atoms: _45  and  _48
REMARK   19  A    between atoms: _48  and  _49
REMARK   20  A    between atoms: _52  and  _54
REMARK   21  A    between atoms: _54  and  _55
REMARK   22  A    between atoms: _54  and  _57
REMARK   23  A    between atoms: _57  and  _58
REMARK   24  A    between atoms: _61  and  _63
REMARK   25  A    between atoms: _63  and  _64
REMARK   26  A    between atoms: _63  and  _66
REMARK   27  A    between atoms: _66  and  _67
REMARK   28  A    between atoms: _70  and  _72
REMARK   29  A    between atoms: _72  and  _73
REMARK   30  A    between atoms: _75  and  _77
REMARK   31  A    between atoms: _77  and  _78
REMARK   32  A    between atoms: _81  and  _83
REMARK   33  A    between atoms: _83  and  _84
REMARK   34  A    between atoms: _83  and  _86
REMARK   35  A    between atoms: _86  and  _87
REMARK   36  A    between atoms: _90  and  _92
REMARK   37  A    between atoms: _92  and  _93
REMARK   38  A    between atoms: _92  and  _95
REMARK   39  A    between atoms: _95  and  _96
REMARK   40  A    between atoms: _99  and  _101
REMARK   41  A    between atoms: _101  and  _102
REMARK   42  A    between atoms: _101  and  _104
REMARK   43  A    between atoms: _104  and  _105
REMARK   44  A    between atoms: _108  and  _110
REMARK   45  A    between atoms: _110  and  _111
REMARK   46  A    between atoms: _110  and  _113
REMARK   47  A    between atoms: _116  and  _118
REMARK   48  A    between atoms: _118  and  _119
REMARK   49  A    between atoms: _118  and  _121
REMARK   50  A    between atoms: _121  and  _122
REMARK   51  A    between atoms: _125  and  _127
REMARK   52  A    between atoms: _127  and  _128
REMARK   53  A    between atoms: _127  and  _130
REMARK   54  A    between atoms: _130  and  _131
REMARK   55  A    between atoms: _131  and  _132
REMARK   56  A    between atoms: _132  and  _133
REMARK   57  A    between atoms: _133  and  _134
REMARK   58  A    between atoms: _138  and  _140
REMARK   59  A    between atoms: _140  and  _141
REMARK   60  A    between atoms: _140  and  _143
REMARK   61  A    between atoms: _143  and  _144
REMARK   62  A    between atoms: _144  and  _145
REMARK   63  A    between atoms: _147  and  _149
REMARK   64  A    between atoms: _149  and  _150
REMARK   65  A    between atoms: _149  and  _152
REMARK   66  A    between atoms: _152  and  _153
REMARK   67  A    between atoms: _156  and  _158
REMARK   68  A    between atoms: _158  and  _159
REMARK   69  A    between atoms: _161  and  _163
REMARK   70  A    between atoms: _163  and  _164
REMARK   71  A    between atoms: _166  and  _168
REMARK   72  A    between atoms: _168  and  _169
REMARK   73  A    between atoms: _168  and  _171
REMARK   74  A    between atoms: _171  and  _172
REMARK   75  A    between atoms: _175  and  _177
REMARK   76  A    between atoms: _177  and  _178
REMARK   77  A    between atoms: _180  and  _182
REMARK   78  A    between atoms: _182  and  _183
REMARK   79  A    between atoms: _185  and  _187
REMARK   80  A    between atoms: _187  and  _188
REMARK   81  A    between atoms: _187  and  _190
REMARK   82  A    between atoms: _190  and  _191
REMARK   83  A    between atoms: _197  and  _199
REMARK   84  A    between atoms: _199  and  _200
REMARK   85  A    between atoms: _199  and  _202
REMARK   86  A    between atoms: _202  and  _203
REMARK   87  A    between atoms: _206  and  _208
REMARK   88  A    between atoms: _208  and  _209
REMARK   89  A    between atoms: _208  and  _211
REMARK   90  A    between atoms: _214  and  _216
REMARK   91  A    between atoms: _216  and  _217
REMARK   92  A    between atoms: _216  and  _219
REMARK   93  A    between atoms: _219  and  _220
REMARK   94  A    between atoms: _224  and  _225
REMARK   95  A    between atoms: _230  and  _232
REMARK   96  A    between atoms: _232  and  _233
REMARK   97  A    between atoms: _232  and  _235
REMARK   98  A    between atoms: _235  and  _236
REMARK   99  A    between atoms: _240  and  _241
REMARK  100  A    between atoms: _246  and  _248
REMARK  101  A    between atoms: _248  and  _249
REMARK  102  A    between atoms: _252  and  _254
REMARK  103  A    between atoms: _254  and  _255
REMARK  104  A    between atoms: _254  and  _257
REMARK  105  A    between atoms: _257  and  _258
REMARK  106  A    between atoms: _263  and  _265
REMARK  107  A    between atoms: _265  and  _266
REMARK  108  A    between atoms: _265  and  _268
REMARK  109  A    between atoms: _268  and  _269
REMARK  110  A    between atoms: _272  and  _274
REMARK  111  A    between atoms: _274  and  _275
REMARK  112  A    between atoms: _274  and  _277
REMARK  113  A    between atoms: _277  and  _278
REMARK  114  A    between atoms: _281  and  _283
REMARK  115  A    between atoms: _283  and  _284
REMARK  116  A    between atoms: _286  and  _288
REMARK  117  A    between atoms: _288  and  _289
REMARK  118  A    between atoms: _288  and  _291
REMARK  119  A    between atoms: _291  and  _292
REMARK  120  A    between atoms: _292  and  _293
REMARK  121  A    between atoms: _293  and  _294
REMARK  122  A    between atoms: _303  and  _305
REMARK  123  A    between atoms: _305  and  _306
REMARK  124  A    between atoms: _305  and  _308
REMARK  125  A    between atoms: _308  and  _309
REMARK  126  A    between atoms: _309  and  _310
REMARK  127  A    between atoms: _310  and  _311
REMARK  128  A    between atoms: _321  and  _322
REMARK  129  A    between atoms: _327  and  _329
REMARK  130  A    between atoms: _329  and  _330
REMARK  131  A    between atoms: _329  and  _332
REMARK  132  A    between atoms: _332  and  _333
REMARK  133  A    between atoms: _336  and  _338
REMARK  134  A    between atoms: _338  and  _339
REMARK  135  A    between atoms: _338  and  _341
REMARK  136  A    between atoms: _341  and  _342
REMARK  137  A    between atoms: _345  and  _347
REMARK  138  A    between atoms: _347  and  _348
REMARK  139  A    between atoms: _347  and  _350
REMARK  140  A    between atoms: _350  and  _351
REMARK  141  A    between atoms: _354  and  _356
REMARK  142  A    between atoms: _356  and  _357
REMARK  143  A    between atoms: _356  and  _359
REMARK  144  A    between atoms: _359  and  _360
REMARK  145  A    between atoms: _363  and  _365
REMARK  146  A    between atoms: _365  and  _366
REMARK  147  A    between atoms: _365  and  _368
REMARK  148  A    between atoms: _368  and  _369
REMARK  149  A    between atoms: _372  and  _374
REMARK  150  A    between atoms: _374  and  _375
REMARK  151  A    between atoms: _377  and  _379
REMARK  152  A    between atoms: _379  and  _380
REMARK  153  A    between atoms: _383  and  _385
REMARK  154  A    between atoms: _385  and  _386
REMARK  155  A    between atoms: _385  and  _388
REMARK  156  A    between atoms: _388  and  _389
REMARK  157  A    between atoms: _392  and  _394
REMARK  158  A    between atoms: _394  and  _395
REMARK  159  A    between atoms: _394  and  _397
REMARK  160  A    between atoms: _397  and  _398
REMARK  161  A    between atoms: _401  and  _403
REMARK  162  A    between atoms: _403  and  _404
REMARK  163  A    between atoms: _403  and  _406
REMARK  164  A    between atoms: _406  and  _407
REMARK  165  A    between atoms: _410  and  _412
REMARK  166  A    between atoms: _412  and  _413
REMARK  167  A    between atoms: _412  and  _415
REMARK  168  A    between atoms: _418  and  _420
REMARK  169  A    between atoms: _420  and  _421
REMARK  170  A    between atoms: _420  and  _423
REMARK  171  A    between atoms: _423  and  _424
REMARK  172  A    between atoms: _427  and  _429
REMARK  173  A    between atoms: _429  and  _430
REMARK  174  A    between atoms: _429  and  _432
REMARK  175  A    between atoms: _432  and  _433
REMARK  176  A    between atoms: _433  and  _434
REMARK  177  A    between atoms: _434  and  _435
REMARK  178  A    between atoms: _435  and  _436
REMARK  179  A    between atoms: _440  and  _442
REMARK  180  A    between atoms: _442  and  _443
REMARK  181  A    between atoms: _442  and  _445
REMARK  182  A    between atoms: _445  and  _446
REMARK  183  A    between atoms: _446  and  _447
REMARK  184  A    between atoms: _449  and  _451
REMARK  185  A    between atoms: _451  and  _452
REMARK  186  A    between atoms: _451  and  _454
REMARK  187  A    between atoms: _454  and  _455
REMARK  188  A    between atoms: _458  and  _460
REMARK  189  A    between atoms: _460  and  _461
REMARK  190  A    between atoms: _463  and  _465
REMARK  191  A    between atoms: _465  and  _466
REMARK  192  A    between atoms: _468  and  _470
REMARK  193  A    between atoms: _470  and  _471
REMARK  194  A    between atoms: _470  and  _473
REMARK  195  A    between atoms: _473  and  _474
REMARK  196  A    between atoms: _477  and  _479
REMARK  197  A    between atoms: _479  and  _480
REMARK  198  A    between atoms: _482  and  _484
REMARK  199  A    between atoms: _484  and  _485
REMARK  200  A    between atoms: _487  and  _489
REMARK  201  A    between atoms: _489  and  _490
REMARK  202  A    between atoms: _489  and  _492
REMARK  203  A    between atoms: _492  and  _493
REMARK  204  A    between atoms: _496  and  _498
REMARK  205  A    between atoms: _498  and  _499
REMARK  206  A    between atoms: _498  and  _501
REMARK  207  A    between atoms: _504  and  _506
REMARK  208  A    between atoms: _506  and  _507
REMARK  209  A    between atoms: _506  and  _509
REMARK  210  A    between atoms: _509  and  _510
REMARK  211  A    between atoms: _514  and  _515
REMARK  212  A    between atoms: _520  and  _522
REMARK  213  A    between atoms: _522  and  _523
REMARK  214  A    between atoms: _522  and  _525
REMARK  215  A    between atoms: _525  and  _526
REMARK  216  A    between atoms: _530  and  _531
REMARK  217  A    between atoms: _536  and  _538
REMARK  218  A    between atoms: _538  and  _539
REMARK  219  A    between atoms: _542  and  _544
REMARK  220  A    between atoms: _544  and  _545
REMARK  221  A    between atoms: _544  and  _547
REMARK  222  A    between atoms: _547  and  _548
REMARK  223  A    between atoms: _553  and  _555
REMARK  224  A    between atoms: _555  and  _556
REMARK  225  A    between atoms: _555  and  _558
REMARK  226  A    between atoms: _558  and  _559
REMARK  227  A    between atoms: _562  and  _564
REMARK  228  A    between atoms: _564  and  _565
REMARK  229  A    between atoms: _564  and  _567
REMARK  230  A    between atoms: _567  and  _568
REMARK  231  A    between atoms: _571  and  _573
REMARK  232  A    between atoms: _573  and  _574
REMARK  233  A    between atoms: _576  and  _578
REMARK  234  A    between atoms: _578  and  _579
REMARK  235  A    between atoms: _578  and  _581
REMARK  236  A    between atoms: _581  and  _582
REMARK  237  A    between atoms: _582  and  _583
REMARK  238  A    between atoms: _583  and  _584
REMARK                            x       y       z     vdW  Elec       q    Type
REMARK                         _______ _______ _______ _____ _____    ______ ____
ROOT
ATOM      1  O   HOH     1      30.732 -35.206   5.212  0.00  0.00    +0.000 OA
ENDROOT
TORSDOF 0
