REMARK  Name = ../refined-set-2016/1od8/1od8_pocket.pdb
REMARK  135 active torsions:
REMARK  status: ('A' for Active; 'I' for Inactive)
REMARK    1  A    between atoms: _1  and  _3
REMARK    2  A    between atoms: _3  and  _4
REMARK    3  A    between atoms: _7  and  _9
REMARK    4  A    between atoms: _9  and  _10
REMARK    5  A    between atoms: _13  and  _15
REMARK    6  A    between atoms: _15  and  _16
REMARK    7  A    between atoms: _15  and  _18
REMARK    8  A    between atoms: _18  and  _19
REMARK    9  A    between atoms: _19  and  _20
REMARK   10  A    between atoms: _20  and  _21
REMARK   11  A    between atoms: _30  and  _32
REMARK   12  A    between atoms: _32  and  _33
REMARK   13  A    between atoms: _32  and  _35
REMARK   14  A    between atoms: _35  and  _36
REMARK   15  A    between atoms: _39  and  _41
REMARK   16  A    between atoms: _41  and  _42
REMARK   17  A    between atoms: _45  and  _47
REMARK   18  A    between atoms: _47  and  _48
REMARK   19  A    between atoms: _47  and  _50
REMARK   20  A    between atoms: _50  and  _51
REMARK   21  A    between atoms: _51  and  _52
REMARK   22  A    between atoms: _55  and  _57
REMARK   23  A    between atoms: _57  and  _58
REMARK   24  A    between atoms: _57  and  _60
REMARK   25  A    between atoms: _60  and  _61
REMARK   26  A    between atoms: _66  and  _68
REMARK   27  A    between atoms: _68  and  _69
REMARK   28  A    between atoms: _68  and  _71
REMARK   29  A    between atoms: _71  and  _72
REMARK   30  A    between atoms: _72  and  _73
REMARK   31  A    between atoms: _73  and  _74
REMARK   32  A    between atoms: _74  and  _75
REMARK   33  A    between atoms: _79  and  _81
REMARK   34  A    between atoms: _81  and  _82
REMARK   35  A    between atoms: _81  and  _84
REMARK   36  A    between atoms: _84  and  _85
REMARK   37  A    between atoms: _85  and  _86
REMARK   38  A    between atoms: _86  and  _87
REMARK   39  A    between atoms: _96  and  _98
REMARK   40  A    between atoms: _98  and  _99
REMARK   41  A    between atoms: _98  and  _101
REMARK   42  A    between atoms: _101  and  _102
REMARK   43  A    between atoms: _107  and  _109
REMARK   44  A    between atoms: _109  and  _110
REMARK   45  A    between atoms: _109  and  _112
REMARK   46  A    between atoms: _112  and  _113
REMARK   47  A    between atoms: _116  and  _118
REMARK   48  A    between atoms: _118  and  _119
REMARK   49  A    between atoms: _118  and  _121
REMARK   50  A    between atoms: _121  and  _122
REMARK   51  A    between atoms: _132  and  _134
REMARK   52  A    between atoms: _134  and  _135
REMARK   53  A    between atoms: _134  and  _137
REMARK   54  A    between atoms: _137  and  _138
REMARK   55  A    between atoms: _143  and  _145
REMARK   56  A    between atoms: _145  and  _146
REMARK   57  A    between atoms: _145  and  _148
REMARK   58  A    between atoms: _148  and  _149
REMARK   59  A    between atoms: _151  and  _153
REMARK   60  A    between atoms: _153  and  _154
REMARK   61  A    between atoms: _153  and  _156
REMARK   62  A    between atoms: _156  and  _157
REMARK   63  A    between atoms: _157  and  _158
REMARK   64  A    between atoms: _163  and  _165
REMARK   65  A    between atoms: _165  and  _166
REMARK   66  A    between atoms: _165  and  _168
REMARK   67  A    between atoms: _168  and  _169
REMARK   68  A    between atoms: _172  and  _174
REMARK   69  A    between atoms: _174  and  _175
REMARK   70  A    between atoms: _174  and  _177
REMARK   71  A    between atoms: _177  and  _178
REMARK   72  A    between atoms: _183  and  _185
REMARK   73  A    between atoms: _185  and  _186
REMARK   74  A    between atoms: _185  and  _188
REMARK   75  A    between atoms: _188  and  _189
REMARK   76  A    between atoms: _189  and  _190
REMARK   77  A    between atoms: _193  and  _195
REMARK   78  A    between atoms: _195  and  _196
REMARK   79  A    between atoms: _195  and  _198
REMARK   80  A    between atoms: _198  and  _199
REMARK   81  A    between atoms: _204  and  _206
REMARK   82  A    between atoms: _206  and  _207
REMARK   83  A    between atoms: _206  and  _209
REMARK   84  A    between atoms: _209  and  _210
REMARK   85  A    between atoms: _213  and  _215
REMARK   86  A    between atoms: _215  and  _216
REMARK   87  A    between atoms: _215  and  _218
REMARK   88  A    between atoms: _218  and  _219
REMARK   89  A    between atoms: _224  and  _225
REMARK   90  A    between atoms: _227  and  _229
REMARK   91  A    between atoms: _229  and  _230
REMARK   92  A    between atoms: _229  and  _232
REMARK   93  A    between atoms: _232  and  _233
REMARK   94  A    between atoms: _233  and  _234
REMARK   95  A    between atoms: _239  and  _241
REMARK   96  A    between atoms: _241  and  _242
REMARK   97  A    between atoms: _241  and  _244
REMARK   98  A    between atoms: _244  and  _245
REMARK   99  A    between atoms: _250  and  _252
REMARK  100  A    between atoms: _252  and  _253
REMARK  101  A    between atoms: _252  and  _255
REMARK  102  A    between atoms: _255  and  _256
REMARK  103  A    between atoms: _259  and  _261
REMARK  104  A    between atoms: _261  and  _262
REMARK  105  A    between atoms: _261  and  _264
REMARK  106  A    between atoms: _264  and  _265
REMARK  107  A    between atoms: _265  and  _266
REMARK  108  A    between atoms: _269  and  _271
REMARK  109  A    between atoms: _271  and  _272
REMARK  110  A    between atoms: _271  and  _274
REMARK  111  A    between atoms: _274  and  _275
REMARK  112  A    between atoms: _278  and  _280
REMARK  113  A    between atoms: _280  and  _281
REMARK  114  A    between atoms: _280  and  _283
REMARK  115  A    between atoms: _283  and  _284
REMARK  116  A    between atoms: _294  and  _296
REMARK  117  A    between atoms: _296  and  _297
REMARK  118  A    between atoms: _299  and  _301
REMARK  119  A    between atoms: _301  and  _302
REMARK  120  A    between atoms: _301  and  _304
REMARK  121  A    between atoms: _304  and  _305
REMARK  122  A    between atoms: _308  and  _310
REMARK  123  A    between atoms: _310  and  _311
REMARK  124  A    between atoms: _310  and  _313
REMARK  125  A    between atoms: _313  and  _314
REMARK  126  A    between atoms: _316  and  _318
REMARK  127  A    between atoms: _318  and  _319
REMARK  128  A    between atoms: _318  and  _321
REMARK  129  A    between atoms: _321  and  _322
REMARK  130  A    between atoms: _332  and  _334
REMARK  131  A    between atoms: _334  and  _335
REMARK  132  A    between atoms: _334  and  _337
REMARK  133  A    between atoms: _337  and  _338
REMARK  134  A    between atoms: _338  and  _339
REMARK  135  A    between atoms: _339  and  _340
REMARK                            x       y       z     vdW  Elec       q    Type
REMARK                         _______ _______ _______ _____ _____    ______ ____
ROOT
ATOM      1  CA  ALA A   1      13.226   7.039  16.899  0.00  0.00    +0.133 C 
ATOM      2  CB  ALA A   1      12.262   7.982  16.248  0.00  0.00    +0.027 C 
ENDROOT
BRANCH   1   3
ATOM      3  N   ALA A   1      14.299   6.684  15.975  0.00  0.00    -0.239 NA
ATOM      4  H   ALA A   1      14.127   6.825  14.959  0.00  0.00    +0.142 HD
ENDBRANCH   1   3
BRANCH   1   5
ATOM      5  C   ALA A   1      12.490   5.787  17.304  0.00  0.00    +0.224 C 
ATOM      6  O   ALA A   1      12.156   4.969  16.455  0.00  0.00    -0.287 OA
ENDBRANCH   1   5
TORSDOF 2
REMARK  Name = ../refined-set-2016/1od8/1od8_pocket.pdb
REMARK  135 active torsions:
REMARK  status: ('A' for Active; 'I' for Inactive)
REMARK    1  A    between atoms: _1  and  _3
REMARK    2  A    between atoms: _3  and  _4
REMARK    3  A    between atoms: _7  and  _9
REMARK    4  A    between atoms: _9  and  _10
REMARK    5  A    between atoms: _13  and  _15
REMARK    6  A    between atoms: _15  and  _16
REMARK    7  A    between atoms: _15  and  _18
REMARK    8  A    between atoms: _18  and  _19
REMARK    9  A    between atoms: _19  and  _20
REMARK   10  A    between atoms: _20  and  _21
REMARK   11  A    between atoms: _30  and  _32
REMARK   12  A    between atoms: _32  and  _33
REMARK   13  A    between atoms: _32  and  _35
REMARK   14  A    between atoms: _35  and  _36
REMARK   15  A    between atoms: _39  and  _41
REMARK   16  A    between atoms: _41  and  _42
REMARK   17  A    between atoms: _45  and  _47
REMARK   18  A    between atoms: _47  and  _48
REMARK   19  A    between atoms: _47  and  _50
REMARK   20  A    between atoms: _50  and  _51
REMARK   21  A    between atoms: _51  and  _52
REMARK   22  A    between atoms: _55  and  _57
REMARK   23  A    between atoms: _57  and  _58
REMARK   24  A    between atoms: _57  and  _60
REMARK   25  A    between atoms: _60  and  _61
REMARK   26  A    between atoms: _66  and  _68
REMARK   27  A    between atoms: _68  and  _69
REMARK   28  A    between atoms: _68  and  _71
REMARK   29  A    between atoms: _71  and  _72
REMARK   30  A    between atoms: _72  and  _73
REMARK   31  A    between atoms: _73  and  _74
REMARK   32  A    between atoms: _74  and  _75
REMARK   33  A    between atoms: _79  and  _81
REMARK   34  A    between atoms: _81  and  _82
REMARK   35  A    between atoms: _81  and  _84
REMARK   36  A    between atoms: _84  and  _85
REMARK   37  A    between atoms: _85  and  _86
REMARK   38  A    between atoms: _86  and  _87
REMARK   39  A    between atoms: _96  and  _98
REMARK   40  A    between atoms: _98  and  _99
REMARK   41  A    between atoms: _98  and  _101
REMARK   42  A    between atoms: _101  and  _102
REMARK   43  A    between atoms: _107  and  _109
REMARK   44  A    between atoms: _109  and  _110
REMARK   45  A    between atoms: _109  and  _112
REMARK   46  A    between atoms: _112  and  _113
REMARK   47  A    between atoms: _116  and  _118
REMARK   48  A    between atoms: _118  and  _119
REMARK   49  A    between atoms: _118  and  _121
REMARK   50  A    between atoms: _121  and  _122
REMARK   51  A    between atoms: _132  and  _134
REMARK   52  A    between atoms: _134  and  _135
REMARK   53  A    between atoms: _134  and  _137
REMARK   54  A    between atoms: _137  and  _138
REMARK   55  A    between atoms: _143  and  _145
REMARK   56  A    between atoms: _145  and  _146
REMARK   57  A    between atoms: _145  and  _148
REMARK   58  A    between atoms: _148  and  _149
REMARK   59  A    between atoms: _151  and  _153
REMARK   60  A    between atoms: _153  and  _154
REMARK   61  A    between atoms: _153  and  _156
REMARK   62  A    between atoms: _156  and  _157
REMARK   63  A    between atoms: _157  and  _158
REMARK   64  A    between atoms: _163  and  _165
REMARK   65  A    between atoms: _165  and  _166
REMARK   66  A    between atoms: _165  and  _168
REMARK   67  A    between atoms: _168  and  _169
REMARK   68  A    between atoms: _172  and  _174
REMARK   69  A    between atoms: _174  and  _175
REMARK   70  A    between atoms: _174  and  _177
REMARK   71  A    between atoms: _177  and  _178
REMARK   72  A    between atoms: _183  and  _185
REMARK   73  A    between atoms: _185  and  _186
REMARK   74  A    between atoms: _185  and  _188
REMARK   75  A    between atoms: _188  and  _189
REMARK   76  A    between atoms: _189  and  _190
REMARK   77  A    between atoms: _193  and  _195
REMARK   78  A    between atoms: _195  and  _196
REMARK   79  A    between atoms: _195  and  _198
REMARK   80  A    between atoms: _198  and  _199
REMARK   81  A    between atoms: _204  and  _206
REMARK   82  A    between atoms: _206  and  _207
REMARK   83  A    between atoms: _206  and  _209
REMARK   84  A    between atoms: _209  and  _210
REMARK   85  A    between atoms: _213  and  _215
REMARK   86  A    between atoms: _215  and  _216
REMARK   87  A    between atoms: _215  and  _218
REMARK   88  A    between atoms: _218  and  _219
REMARK   89  A    between atoms: _224  and  _225
REMARK   90  A    between atoms: _227  and  _229
REMARK   91  A    between atoms: _229  and  _230
REMARK   92  A    between atoms: _229  and  _232
REMARK   93  A    between atoms: _232  and  _233
REMARK   94  A    between atoms: _233  and  _234
REMARK   95  A    between atoms: _239  and  _241
REMARK   96  A    between atoms: _241  and  _242
REMARK   97  A    between atoms: _241  and  _244
REMARK   98  A    between atoms: _244  and  _245
REMARK   99  A    between atoms: _250  and  _252
REMARK  100  A    between atoms: _252  and  _253
REMARK  101  A    between atoms: _252  and  _255
REMARK  102  A    between atoms: _255  and  _256
REMARK  103  A    between atoms: _259  and  _261
REMARK  104  A    between atoms: _261  and  _262
REMARK  105  A    between atoms: _261  and  _264
REMARK  106  A    between atoms: _264  and  _265
REMARK  107  A    between atoms: _265  and  _266
REMARK  108  A    between atoms: _269  and  _271
REMARK  109  A    between atoms: _271  and  _272
REMARK  110  A    between atoms: _271  and  _274
REMARK  111  A    between atoms: _274  and  _275
REMARK  112  A    between atoms: _278  and  _280
REMARK  113  A    between atoms: _280  and  _281
REMARK  114  A    between atoms: _280  and  _283
REMARK  115  A    between atoms: _283  and  _284
REMARK  116  A    between atoms: _294  and  _296
REMARK  117  A    between atoms: _296  and  _297
REMARK  118  A    between atoms: _299  and  _301
REMARK  119  A    between atoms: _301  and  _302
REMARK  120  A    between atoms: _301  and  _304
REMARK  121  A    between atoms: _304  and  _305
REMARK  122  A    between atoms: _308  and  _310
REMARK  123  A    between atoms: _310  and  _311
REMARK  124  A    between atoms: _310  and  _313
REMARK  125  A    between atoms: _313  and  _314
REMARK  126  A    between atoms: _316  and  _318
REMARK  127  A    between atoms: _318  and  _319
REMARK  128  A    between atoms: _318  and  _321
REMARK  129  A    between atoms: _321  and  _322
REMARK  130  A    between atoms: _332  and  _334
REMARK  131  A    between atoms: _334  and  _335
REMARK  132  A    between atoms: _334  and  _337
REMARK  133  A    between atoms: _337  and  _338
REMARK  134  A    between atoms: _338  and  _339
REMARK  135  A    between atoms: _339  and  _340
REMARK                            x       y       z     vdW  Elec       q    Type
REMARK                         _______ _______ _______ _____ _____    ______ ____
ROOT
ATOM      1  CA  ALA A   1       7.837   4.543  20.121  0.00  0.00    +0.133 C 
ATOM      2  CB  ALA A   1       6.768   4.574  19.051  0.00  0.00    +0.027 C 
ENDROOT
BRANCH   1   3
ATOM      3  N   ALA A   1       9.125   4.283  19.530  0.00  0.00    -0.239 NA
ATOM      4  H   ALA A   1       9.207   3.498  18.853  0.00  0.00    +0.142 HD
ENDBRANCH   1   3
BRANCH   1   5
ATOM      5  C   ALA A   1       7.508   3.467  21.137  0.00  0.00    +0.224 C 
ATOM      6  O   ALA A   1       7.503   2.287  20.842  0.00  0.00    -0.287 OA
ENDBRANCH   1   5
TORSDOF 2
REMARK  Name = ../refined-set-2016/1od8/1od8_pocket.pdb
REMARK  135 active torsions:
REMARK  status: ('A' for Active; 'I' for Inactive)
REMARK    1  A    between atoms: _1  and  _3
REMARK    2  A    between atoms: _3  and  _4
REMARK    3  A    between atoms: _7  and  _9
REMARK    4  A    between atoms: _9  and  _10
REMARK    5  A    between atoms: _13  and  _15
REMARK    6  A    between atoms: _15  and  _16
REMARK    7  A    between atoms: _15  and  _18
REMARK    8  A    between atoms: _18  and  _19
REMARK    9  A    between atoms: _19  and  _20
REMARK   10  A    between atoms: _20  and  _21
REMARK   11  A    between atoms: _30  and  _32
REMARK   12  A    between atoms: _32  and  _33
REMARK   13  A    between atoms: _32  and  _35
REMARK   14  A    between atoms: _35  and  _36
REMARK   15  A    between atoms: _39  and  _41
REMARK   16  A    between atoms: _41  and  _42
REMARK   17  A    between atoms: _45  and  _47
REMARK   18  A    between atoms: _47  and  _48
REMARK   19  A    between atoms: _47  and  _50
REMARK   20  A    between atoms: _50  and  _51
REMARK   21  A    between atoms: _51  and  _52
REMARK   22  A    between atoms: _55  and  _57
REMARK   23  A    between atoms: _57  and  _58
REMARK   24  A    between atoms: _57  and  _60
REMARK   25  A    between atoms: _60  and  _61
REMARK   26  A    between atoms: _66  and  _68
REMARK   27  A    between atoms: _68  and  _69
REMARK   28  A    between atoms: _68  and  _71
REMARK   29  A    between atoms: _71  and  _72
REMARK   30  A    between atoms: _72  and  _73
REMARK   31  A    between atoms: _73  and  _74
REMARK   32  A    between atoms: _74  and  _75
REMARK   33  A    between atoms: _79  and  _81
REMARK   34  A    between atoms: _81  and  _82
REMARK   35  A    between atoms: _81  and  _84
REMARK   36  A    between atoms: _84  and  _85
REMARK   37  A    between atoms: _85  and  _86
REMARK   38  A    between atoms: _86  and  _87
REMARK   39  A    between atoms: _96  and  _98
REMARK   40  A    between atoms: _98  and  _99
REMARK   41  A    between atoms: _98  and  _101
REMARK   42  A    between atoms: _101  and  _102
REMARK   43  A    between atoms: _107  and  _109
REMARK   44  A    between atoms: _109  and  _110
REMARK   45  A    between atoms: _109  and  _112
REMARK   46  A    between atoms: _112  and  _113
REMARK   47  A    between atoms: _116  and  _118
REMARK   48  A    between atoms: _118  and  _119
REMARK   49  A    between atoms: _118  and  _121
REMARK   50  A    between atoms: _121  and  _122
REMARK   51  A    between atoms: _132  and  _134
REMARK   52  A    between atoms: _134  and  _135
REMARK   53  A    between atoms: _134  and  _137
REMARK   54  A    between atoms: _137  and  _138
REMARK   55  A    between atoms: _143  and  _145
REMARK   56  A    between atoms: _145  and  _146
REMARK   57  A    between atoms: _145  and  _148
REMARK   58  A    between atoms: _148  and  _149
REMARK   59  A    between atoms: _151  and  _153
REMARK   60  A    between atoms: _153  and  _154
REMARK   61  A    between atoms: _153  and  _156
REMARK   62  A    between atoms: _156  and  _157
REMARK   63  A    between atoms: _157  and  _158
REMARK   64  A    between atoms: _163  and  _165
REMARK   65  A    between atoms: _165  and  _166
REMARK   66  A    between atoms: _165  and  _168
REMARK   67  A    between atoms: _168  and  _169
REMARK   68  A    between atoms: _172  and  _174
REMARK   69  A    between atoms: _174  and  _175
REMARK   70  A    between atoms: _174  and  _177
REMARK   71  A    between atoms: _177  and  _178
REMARK   72  A    between atoms: _183  and  _185
REMARK   73  A    between atoms: _185  and  _186
REMARK   74  A    between atoms: _185  and  _188
REMARK   75  A    between atoms: _188  and  _189
REMARK   76  A    between atoms: _189  and  _190
REMARK   77  A    between atoms: _193  and  _195
REMARK   78  A    between atoms: _195  and  _196
REMARK   79  A    between atoms: _195  and  _198
REMARK   80  A    between atoms: _198  and  _199
REMARK   81  A    between atoms: _204  and  _206
REMARK   82  A    between atoms: _206  and  _207
REMARK   83  A    between atoms: _206  and  _209
REMARK   84  A    between atoms: _209  and  _210
REMARK   85  A    between atoms: _213  and  _215
REMARK   86  A    between atoms: _215  and  _216
REMARK   87  A    between atoms: _215  and  _218
REMARK   88  A    between atoms: _218  and  _219
REMARK   89  A    between atoms: _224  and  _225
REMARK   90  A    between atoms: _227  and  _229
REMARK   91  A    between atoms: _229  and  _230
REMARK   92  A    between atoms: _229  and  _232
REMARK   93  A    between atoms: _232  and  _233
REMARK   94  A    between atoms: _233  and  _234
REMARK   95  A    between atoms: _239  and  _241
REMARK   96  A    between atoms: _241  and  _242
REMARK   97  A    between atoms: _241  and  _244
REMARK   98  A    between atoms: _244  and  _245
REMARK   99  A    between atoms: _250  and  _252
REMARK  100  A    between atoms: _252  and  _253
REMARK  101  A    between atoms: _252  and  _255
REMARK  102  A    between atoms: _255  and  _256
REMARK  103  A    between atoms: _259  and  _261
REMARK  104  A    between atoms: _261  and  _262
REMARK  105  A    between atoms: _261  and  _264
REMARK  106  A    between atoms: _264  and  _265
REMARK  107  A    between atoms: _265  and  _266
REMARK  108  A    between atoms: _269  and  _271
REMARK  109  A    between atoms: _271  and  _272
REMARK  110  A    between atoms: _271  and  _274
REMARK  111  A    between atoms: _274  and  _275
REMARK  112  A    between atoms: _278  and  _280
REMARK  113  A    between atoms: _280  and  _281
REMARK  114  A    between atoms: _280  and  _283
REMARK  115  A    between atoms: _283  and  _284
REMARK  116  A    between atoms: _294  and  _296
REMARK  117  A    between atoms: _296  and  _297
REMARK  118  A    between atoms: _299  and  _301
REMARK  119  A    between atoms: _301  and  _302
REMARK  120  A    between atoms: _301  and  _304
REMARK  121  A    between atoms: _304  and  _305
REMARK  122  A    between atoms: _308  and  _310
REMARK  123  A    between atoms: _310  and  _311
REMARK  124  A    between atoms: _310  and  _313
REMARK  125  A    between atoms: _313  and  _314
REMARK  126  A    between atoms: _316  and  _318
REMARK  127  A    between atoms: _318  and  _319
REMARK  128  A    between atoms: _318  and  _321
REMARK  129  A    between atoms: _321  and  _322
REMARK  130  A    between atoms: _332  and  _334
REMARK  131  A    between atoms: _334  and  _335
REMARK  132  A    between atoms: _334  and  _337
REMARK  133  A    between atoms: _337  and  _338
REMARK  134  A    between atoms: _338  and  _339
REMARK  135  A    between atoms: _339  and  _340
REMARK                            x       y       z     vdW  Elec       q    Type
REMARK                         _______ _______ _______ _____ _____    ______ ____
ROOT
ATOM      1  NE  ARG A   1       4.592   1.896  16.805  0.00  0.00    -0.265 N 
ATOM      2  HE  ARG A   1       4.018   1.791  17.666  0.00  0.00    +0.259 HD
ATOM      3  CZ  ARG A   1       4.661   3.067  16.273  0.00  0.00    +0.342 C 
ATOM      4  NH2 ARG A   1       4.030   4.080  16.796  0.00  0.00    -0.292 N 
ATOM      5 HH21 ARG A   1       3.460   3.950  17.656  0.00  0.00    +0.255 HD
ATOM      6 HH22 ARG A   1       4.097   5.019  16.353  0.00  0.00    +0.255 HD
ATOM      7  NH1 ARG A   1       5.384   3.218  15.178  0.00  0.00    -0.292 N 
ATOM      8 HH11 ARG A   1       5.880   2.402  14.766  0.00  0.00    +0.255 HD
ATOM      9 HH12 ARG A   1       5.457   4.153  14.728  0.00  0.00    +0.255 HD
ENDROOT
BRANCH   1  10
ATOM     10  CD  ARG A   1       5.243   0.735  16.303  0.00  0.00    +0.174 C 
BRANCH  10  11
ATOM     11  CG  ARG A   1       5.170  -0.259  17.361  0.00  0.00    +0.045 C 
BRANCH  11  12
ATOM     12  CB  ARG A   1       5.939   0.165  18.494  0.00  0.00    +0.029 C 
BRANCH  12  13
ATOM     13  CA  ARG A   1       5.347  -0.488  19.747  0.00  0.00    +0.133 C 
BRANCH  13  14
ATOM     14  N   ARG A   1       4.971   0.522  20.696  0.00  0.00    -0.239 NA
ATOM     15  H   ARG A   1       5.624   1.317  20.845  0.00  0.00    +0.142 HD
ENDBRANCH  13  14
BRANCH  13  16
ATOM     16  C   ARG A   1       6.343  -1.465  20.275  0.00  0.00    +0.224 C 
ATOM     17  O   ARG A   1       6.810  -2.317  19.534  0.00  0.00    -0.287 OA
ENDBRANCH  13  16
ENDBRANCH  12  13
ENDBRANCH  11  12
ENDBRANCH  10  11
ENDBRANCH   1  10
TORSDOF 6
REMARK  Name = ../refined-set-2016/1od8/1od8_pocket.pdb
REMARK  135 active torsions:
REMARK  status: ('A' for Active; 'I' for Inactive)
REMARK    1  A    between atoms: _1  and  _3
REMARK    2  A    between atoms: _3  and  _4
REMARK    3  A    between atoms: _7  and  _9
REMARK    4  A    between atoms: _9  and  _10
REMARK    5  A    between atoms: _13  and  _15
REMARK    6  A    between atoms: _15  and  _16
REMARK    7  A    between atoms: _15  and  _18
REMARK    8  A    between atoms: _18  and  _19
REMARK    9  A    between atoms: _19  and  _20
REMARK   10  A    between atoms: _20  and  _21
REMARK   11  A    between atoms: _30  and  _32
REMARK   12  A    between atoms: _32  and  _33
REMARK   13  A    between atoms: _32  and  _35
REMARK   14  A    between atoms: _35  and  _36
REMARK   15  A    between atoms: _39  and  _41
REMARK   16  A    between atoms: _41  and  _42
REMARK   17  A    between atoms: _45  and  _47
REMARK   18  A    between atoms: _47  and  _48
REMARK   19  A    between atoms: _47  and  _50
REMARK   20  A    between atoms: _50  and  _51
REMARK   21  A    between atoms: _51  and  _52
REMARK   22  A    between atoms: _55  and  _57
REMARK   23  A    between atoms: _57  and  _58
REMARK   24  A    between atoms: _57  and  _60
REMARK   25  A    between atoms: _60  and  _61
REMARK   26  A    between atoms: _66  and  _68
REMARK   27  A    between atoms: _68  and  _69
REMARK   28  A    between atoms: _68  and  _71
REMARK   29  A    between atoms: _71  and  _72
REMARK   30  A    between atoms: _72  and  _73
REMARK   31  A    between atoms: _73  and  _74
REMARK   32  A    between atoms: _74  and  _75
REMARK   33  A    between atoms: _79  and  _81
REMARK   34  A    between atoms: _81  and  _82
REMARK   35  A    between atoms: _81  and  _84
REMARK   36  A    between atoms: _84  and  _85
REMARK   37  A    between atoms: _85  and  _86
REMARK   38  A    between atoms: _86  and  _87
REMARK   39  A    between atoms: _96  and  _98
REMARK   40  A    between atoms: _98  and  _99
REMARK   41  A    between atoms: _98  and  _101
REMARK   42  A    between atoms: _101  and  _102
REMARK   43  A    between atoms: _107  and  _109
REMARK   44  A    between atoms: _109  and  _110
REMARK   45  A    between atoms: _109  and  _112
REMARK   46  A    between atoms: _112  and  _113
REMARK   47  A    between atoms: _116  and  _118
REMARK   48  A    between atoms: _118  and  _119
REMARK   49  A    between atoms: _118  and  _121
REMARK   50  A    between atoms: _121  and  _122
REMARK   51  A    between atoms: _132  and  _134
REMARK   52  A    between atoms: _134  and  _135
REMARK   53  A    between atoms: _134  and  _137
REMARK   54  A    between atoms: _137  and  _138
REMARK   55  A    between atoms: _143  and  _145
REMARK   56  A    between atoms: _145  and  _146
REMARK   57  A    between atoms: _145  and  _148
REMARK   58  A    between atoms: _148  and  _149
REMARK   59  A    between atoms: _151  and  _153
REMARK   60  A    between atoms: _153  and  _154
REMARK   61  A    between atoms: _153  and  _156
REMARK   62  A    between atoms: _156  and  _157
REMARK   63  A    between atoms: _157  and  _158
REMARK   64  A    between atoms: _163  and  _165
REMARK   65  A    between atoms: _165  and  _166
REMARK   66  A    between atoms: _165  and  _168
REMARK   67  A    between atoms: _168  and  _169
REMARK   68  A    between atoms: _172  and  _174
REMARK   69  A    between atoms: _174  and  _175
REMARK   70  A    between atoms: _174  and  _177
REMARK   71  A    between atoms: _177  and  _178
REMARK   72  A    between atoms: _183  and  _185
REMARK   73  A    between atoms: _185  and  _186
REMARK   74  A    between atoms: _185  and  _188
REMARK   75  A    between atoms: _188  and  _189
REMARK   76  A    between atoms: _189  and  _190
REMARK   77  A    between atoms: _193  and  _195
REMARK   78  A    between atoms: _195  and  _196
REMARK   79  A    between atoms: _195  and  _198
REMARK   80  A    between atoms: _198  and  _199
REMARK   81  A    between atoms: _204  and  _206
REMARK   82  A    between atoms: _206  and  _207
REMARK   83  A    between atoms: _206  and  _209
REMARK   84  A    between atoms: _209  and  _210
REMARK   85  A    between atoms: _213  and  _215
REMARK   86  A    between atoms: _215  and  _216
REMARK   87  A    between atoms: _215  and  _218
REMARK   88  A    between atoms: _218  and  _219
REMARK   89  A    between atoms: _224  and  _225
REMARK   90  A    between atoms: _227  and  _229
REMARK   91  A    between atoms: _229  and  _230
REMARK   92  A    between atoms: _229  and  _232
REMARK   93  A    between atoms: _232  and  _233
REMARK   94  A    between atoms: _233  and  _234
REMARK   95  A    between atoms: _239  and  _241
REMARK   96  A    between atoms: _241  and  _242
REMARK   97  A    between atoms: _241  and  _244
REMARK   98  A    between atoms: _244  and  _245
REMARK   99  A    between atoms: _250  and  _252
REMARK  100  A    between atoms: _252  and  _253
REMARK  101  A    between atoms: _252  and  _255
REMARK  102  A    between atoms: _255  and  _256
REMARK  103  A    between atoms: _259  and  _261
REMARK  104  A    between atoms: _261  and  _262
REMARK  105  A    between atoms: _261  and  _264
REMARK  106  A    between atoms: _264  and  _265
REMARK  107  A    between atoms: _265  and  _266
REMARK  108  A    between atoms: _269  and  _271
REMARK  109  A    between atoms: _271  and  _272
REMARK  110  A    between atoms: _271  and  _274
REMARK  111  A    between atoms: _274  and  _275
REMARK  112  A    between atoms: _278  and  _280
REMARK  113  A    between atoms: _280  and  _281
REMARK  114  A    between atoms: _280  and  _283
REMARK  115  A    between atoms: _283  and  _284
REMARK  116  A    between atoms: _294  and  _296
REMARK  117  A    between atoms: _296  and  _297
REMARK  118  A    between atoms: _299  and  _301
REMARK  119  A    between atoms: _301  and  _302
REMARK  120  A    between atoms: _301  and  _304
REMARK  121  A    between atoms: _304  and  _305
REMARK  122  A    between atoms: _308  and  _310
REMARK  123  A    between atoms: _310  and  _311
REMARK  124  A    between atoms: _310  and  _313
REMARK  125  A    between atoms: _313  and  _314
REMARK  126  A    between atoms: _316  and  _318
REMARK  127  A    between atoms: _318  and  _319
REMARK  128  A    between atoms: _318  and  _321
REMARK  129  A    between atoms: _321  and  _322
REMARK  130  A    between atoms: _332  and  _334
REMARK  131  A    between atoms: _334  and  _335
REMARK  132  A    between atoms: _334  and  _337
REMARK  133  A    between atoms: _337  and  _338
REMARK  134  A    between atoms: _338  and  _339
REMARK  135  A    between atoms: _339  and  _340
REMARK                            x       y       z     vdW  Elec       q    Type
REMARK                         _______ _______ _______ _____ _____    ______ ____
ROOT
ATOM      1  CA  GLU A   3       9.720   9.642  19.345  0.00  0.00    +0.149 C 
ENDROOT
BRANCH   1   4
ATOM      2  C   ALA A   2      11.376   9.491  21.093  0.00  0.00    +0.241 C 
ATOM      3  O   ALA A   2      11.590  10.691  20.992  0.00  0.00    -0.273 OA
ATOM      4  N   GLU A   3      10.446   8.888  20.355  0.00  0.00    -0.297 N 
ATOM      5  H   GLU A   3      10.239   7.879  20.501  0.00  0.00    +0.150 HD
BRANCH   2   6
ATOM      6  CA  ALA A   2      12.143   8.650  22.083  0.00  0.00    +0.149 C 
ATOM      7  CB  ALA A   2      11.755   8.980  23.492  0.00  0.00    +0.031 C 
BRANCH   6   9
ATOM      8  C   THR A   1      14.160   8.424  20.797  0.00  0.00    +0.241 C 
ATOM      9  N   ALA A   2      13.575   8.879  21.897  0.00  0.00    -0.297 N 
ATOM     10  H   ALA A   2      14.126   9.390  22.616  0.00  0.00    +0.150 HD
ATOM     11  O   THR A   1      13.579   7.692  20.014  0.00  0.00    -0.274 OA
BRANCH   8  12
ATOM     12  CA  THR A   1      15.587   8.835  20.506  0.00  0.00    +0.172 C 
BRANCH  12  13
ATOM     13  N   THR A   1      16.291   7.637  20.070  0.00  0.00    -0.236 NA
ATOM     14  H   THR A   1      15.977   7.172  19.194  0.00  0.00    +0.142 HD
ENDBRANCH  12  13
BRANCH  12  15
ATOM     15  CB  THR A   1      15.601   9.896  19.389  0.00  0.00    +0.135 C 
ATOM     16  CG2 THR A   1      14.992  11.196  19.876  0.00  0.00    +0.034 C 
BRANCH  15  17
ATOM     17  OG1 THR A   1      16.951  10.120  19.007  0.00  0.00    -0.383 OA
ATOM     18  HG1 THR A   1      16.981  10.800  18.288  0.00  0.00    +0.210 HD
ENDBRANCH  15  17
ENDBRANCH  12  15
ENDBRANCH   8  12
ENDBRANCH   6   9
ENDBRANCH   2   6
ENDBRANCH   1   4
BRANCH   1  19
ATOM     19  C   GLU A   3       8.850  10.725  19.952  0.00  0.00    +0.241 C 
ATOM     20  N   ASN A   4       8.258  10.436  21.103  0.00  0.00    -0.298 N 
ATOM     21  H   ASN A   4       8.473   9.529  21.564  0.00  0.00    +0.150 HD
ATOM     22  O   GLU A   3       8.702  11.810  19.374  0.00  0.00    -0.273 OA
BRANCH  20  23
ATOM     23  CA  ASN A   4       7.311  11.350  21.747  0.00  0.00    +0.146 C 
BRANCH  23  24
ATOM     24  C   ASN A   4       7.424  11.413  23.269  0.00  0.00    +0.227 C 
ATOM     25  O   ASN A   4       6.998  12.386  23.882  0.00  0.00    -0.286 OA
ENDBRANCH  23  24
BRANCH  23  26
ATOM     26  CB  ASN A   4       5.885  11.008  21.362  0.00  0.00    +0.112 C 
BRANCH  26  27
ATOM     27  CG  ASN A   4       5.588  11.361  19.926  0.00  0.00    +0.222 C 
ATOM     28  OD1 ASN A   4       5.602  12.544  19.565  0.00  0.00    -0.275 OA
ATOM     29  ND2 ASN A   4       5.318  10.357  19.103  0.00  0.00    -0.329 N 
ATOM     30 HD21 ASN A   4       5.319   9.379  19.458  0.00  0.00    +0.145 HD
ATOM     31 HD22 ASN A   4       5.105  10.547  18.103  0.00  0.00    +0.145 HD
ENDBRANCH  26  27
ENDBRANCH  23  26
ENDBRANCH  20  23
ENDBRANCH   1  19
BRANCH   1  32
ATOM     32  CB  GLU A   3       8.901   8.718  18.476  0.00  0.00    +0.041 C 
BRANCH  32  33
ATOM     33  CG  GLU A   3       8.363   9.376  17.236  0.00  0.00    +0.116 C 
BRANCH  33  34
ATOM     34  CD  GLU A   3       7.543   8.493  16.345  0.00  0.00    +0.365 C 
ATOM     35  OE2 GLU A   3       7.260   7.343  16.739  0.00  0.00    -0.246 OA
ATOM     36  OE1 GLU A   3       7.189   8.947  15.228  0.00  0.00    -0.246 OA
ENDBRANCH  33  34
ENDBRANCH  32  33
ENDBRANCH   1  32
TORSDOF 15
REMARK  Name = ../refined-set-2016/1od8/1od8_pocket.pdb
REMARK  135 active torsions:
REMARK  status: ('A' for Active; 'I' for Inactive)
REMARK    1  A    between atoms: _1  and  _3
REMARK    2  A    between atoms: _3  and  _4
REMARK    3  A    between atoms: _7  and  _9
REMARK    4  A    between atoms: _9  and  _10
REMARK    5  A    between atoms: _13  and  _15
REMARK    6  A    between atoms: _15  and  _16
REMARK    7  A    between atoms: _15  and  _18
REMARK    8  A    between atoms: _18  and  _19
REMARK    9  A    between atoms: _19  and  _20
REMARK   10  A    between atoms: _20  and  _21
REMARK   11  A    between atoms: _30  and  _32
REMARK   12  A    between atoms: _32  and  _33
REMARK   13  A    between atoms: _32  and  _35
REMARK   14  A    between atoms: _35  and  _36
REMARK   15  A    between atoms: _39  and  _41
REMARK   16  A    between atoms: _41  and  _42
REMARK   17  A    between atoms: _45  and  _47
REMARK   18  A    between atoms: _47  and  _48
REMARK   19  A    between atoms: _47  and  _50
REMARK   20  A    between atoms: _50  and  _51
REMARK   21  A    between atoms: _51  and  _52
REMARK   22  A    between atoms: _55  and  _57
REMARK   23  A    between atoms: _57  and  _58
REMARK   24  A    between atoms: _57  and  _60
REMARK   25  A    between atoms: _60  and  _61
REMARK   26  A    between atoms: _66  and  _68
REMARK   27  A    between atoms: _68  and  _69
REMARK   28  A    between atoms: _68  and  _71
REMARK   29  A    between atoms: _71  and  _72
REMARK   30  A    between atoms: _72  and  _73
REMARK   31  A    between atoms: _73  and  _74
REMARK   32  A    between atoms: _74  and  _75
REMARK   33  A    between atoms: _79  and  _81
REMARK   34  A    between atoms: _81  and  _82
REMARK   35  A    between atoms: _81  and  _84
REMARK   36  A    between atoms: _84  and  _85
REMARK   37  A    between atoms: _85  and  _86
REMARK   38  A    between atoms: _86  and  _87
REMARK   39  A    between atoms: _96  and  _98
REMARK   40  A    between atoms: _98  and  _99
REMARK   41  A    between atoms: _98  and  _101
REMARK   42  A    between atoms: _101  and  _102
REMARK   43  A    between atoms: _107  and  _109
REMARK   44  A    between atoms: _109  and  _110
REMARK   45  A    between atoms: _109  and  _112
REMARK   46  A    between atoms: _112  and  _113
REMARK   47  A    between atoms: _116  and  _118
REMARK   48  A    between atoms: _118  and  _119
REMARK   49  A    between atoms: _118  and  _121
REMARK   50  A    between atoms: _121  and  _122
REMARK   51  A    between atoms: _132  and  _134
REMARK   52  A    between atoms: _134  and  _135
REMARK   53  A    between atoms: _134  and  _137
REMARK   54  A    between atoms: _137  and  _138
REMARK   55  A    between atoms: _143  and  _145
REMARK   56  A    between atoms: _145  and  _146
REMARK   57  A    between atoms: _145  and  _148
REMARK   58  A    between atoms: _148  and  _149
REMARK   59  A    between atoms: _151  and  _153
REMARK   60  A    between atoms: _153  and  _154
REMARK   61  A    between atoms: _153  and  _156
REMARK   62  A    between atoms: _156  and  _157
REMARK   63  A    between atoms: _157  and  _158
REMARK   64  A    between atoms: _163  and  _165
REMARK   65  A    between atoms: _165  and  _166
REMARK   66  A    between atoms: _165  and  _168
REMARK   67  A    between atoms: _168  and  _169
REMARK   68  A    between atoms: _172  and  _174
REMARK   69  A    between atoms: _174  and  _175
REMARK   70  A    between atoms: _174  and  _177
REMARK   71  A    between atoms: _177  and  _178
REMARK   72  A    between atoms: _183  and  _185
REMARK   73  A    between atoms: _185  and  _186
REMARK   74  A    between atoms: _185  and  _188
REMARK   75  A    between atoms: _188  and  _189
REMARK   76  A    between atoms: _189  and  _190
REMARK   77  A    between atoms: _193  and  _195
REMARK   78  A    between atoms: _195  and  _196
REMARK   79  A    between atoms: _195  and  _198
REMARK   80  A    between atoms: _198  and  _199
REMARK   81  A    between atoms: _204  and  _206
REMARK   82  A    between atoms: _206  and  _207
REMARK   83  A    between atoms: _206  and  _209
REMARK   84  A    between atoms: _209  and  _210
REMARK   85  A    between atoms: _213  and  _215
REMARK   86  A    between atoms: _215  and  _216
REMARK   87  A    between atoms: _215  and  _218
REMARK   88  A    between atoms: _218  and  _219
REMARK   89  A    between atoms: _224  and  _225
REMARK   90  A    between atoms: _227  and  _229
REMARK   91  A    between atoms: _229  and  _230
REMARK   92  A    between atoms: _229  and  _232
REMARK   93  A    between atoms: _232  and  _233
REMARK   94  A    between atoms: _233  and  _234
REMARK   95  A    between atoms: _239  and  _241
REMARK   96  A    between atoms: _241  and  _242
REMARK   97  A    between atoms: _241  and  _244
REMARK   98  A    between atoms: _244  and  _245
REMARK   99  A    between atoms: _250  and  _252
REMARK  100  A    between atoms: _252  and  _253
REMARK  101  A    between atoms: _252  and  _255
REMARK  102  A    between atoms: _255  and  _256
REMARK  103  A    between atoms: _259  and  _261
REMARK  104  A    between atoms: _261  and  _262
REMARK  105  A    between atoms: _261  and  _264
REMARK  106  A    between atoms: _264  and  _265
REMARK  107  A    between atoms: _265  and  _266
REMARK  108  A    between atoms: _269  and  _271
REMARK  109  A    between atoms: _271  and  _272
REMARK  110  A    between atoms: _271  and  _274
REMARK  111  A    between atoms: _274  and  _275
REMARK  112  A    between atoms: _278  and  _280
REMARK  113  A    between atoms: _280  and  _281
REMARK  114  A    between atoms: _280  and  _283
REMARK  115  A    between atoms: _283  and  _284
REMARK  116  A    between atoms: _294  and  _296
REMARK  117  A    between atoms: _296  and  _297
REMARK  118  A    between atoms: _299  and  _301
REMARK  119  A    between atoms: _301  and  _302
REMARK  120  A    between atoms: _301  and  _304
REMARK  121  A    between atoms: _304  and  _305
REMARK  122  A    between atoms: _308  and  _310
REMARK  123  A    between atoms: _310  and  _311
REMARK  124  A    between atoms: _310  and  _313
REMARK  125  A    between atoms: _313  and  _314
REMARK  126  A    between atoms: _316  and  _318
REMARK  127  A    between atoms: _318  and  _319
REMARK  128  A    between atoms: _318  and  _321
REMARK  129  A    between atoms: _321  and  _322
REMARK  130  A    between atoms: _332  and  _334
REMARK  131  A    between atoms: _334  and  _335
REMARK  132  A    between atoms: _334  and  _337
REMARK  133  A    between atoms: _337  and  _338
REMARK  134  A    between atoms: _338  and  _339
REMARK  135  A    between atoms: _339  and  _340
REMARK                            x       y       z     vdW  Elec       q    Type
REMARK                         _______ _______ _______ _____ _____    ______ ____
ROOT
ATOM      1  CG  LYS A   1       8.443  15.315  22.592  0.00  0.00    -0.000 C 
ENDROOT
BRANCH   1   2
ATOM      2  CB  LYS A   1       7.683  15.678  23.869  0.00  0.00    +0.025 C 
BRANCH   2   3
ATOM      3  CA  LYS A   1       8.598  15.690  25.074  0.00  0.00    +0.133 C 
BRANCH   3   4
ATOM      4  N   LYS A   1       9.055  14.350  25.357  0.00  0.00    -0.239 NA
ATOM      5  H   LYS A   1       8.524  13.542  24.973  0.00  0.00    +0.142 HD
ENDBRANCH   3   4
BRANCH   3   6
ATOM      6  C   LYS A   1       7.923  16.281  26.313  0.00  0.00    +0.224 C 
ATOM      7  O   LYS A   1       7.721  15.623  27.319  0.00  0.00    -0.287 OA
ENDBRANCH   3   6
ENDBRANCH   2   3
ENDBRANCH   1   2
BRANCH   1   8
ATOM      8  CD  LYS A   1       7.544  15.126  21.403  0.00  0.00    -0.024 C 
BRANCH   8   9
ATOM      9  CE  LYS A   1       8.380  14.863  20.167  0.00  0.00    -0.086 C 
BRANCH   9  10
ATOM     10  NZ  LYS A   1       7.537  14.522  18.975  0.00  0.00    +0.380 N 
ATOM     11  HZ1 LYS A   1       6.982  13.667  19.178  0.00  0.00    -0.089 HD
ATOM     12  HZ2 LYS A   1       6.894  15.313  18.769  0.00  0.00    -0.089 HD
ATOM     13  HZ3 LYS A   1       8.152  14.351  18.154  0.00  0.00    -0.089 HD
ENDBRANCH   9  10
ENDBRANCH   8   9
ENDBRANCH   1   8
TORSDOF 7
REMARK  Name = ../refined-set-2016/1od8/1od8_pocket.pdb
REMARK  135 active torsions:
REMARK  status: ('A' for Active; 'I' for Inactive)
REMARK    1  A    between atoms: _1  and  _3
REMARK    2  A    between atoms: _3  and  _4
REMARK    3  A    between atoms: _7  and  _9
REMARK    4  A    between atoms: _9  and  _10
REMARK    5  A    between atoms: _13  and  _15
REMARK    6  A    between atoms: _15  and  _16
REMARK    7  A    between atoms: _15  and  _18
REMARK    8  A    between atoms: _18  and  _19
REMARK    9  A    between atoms: _19  and  _20
REMARK   10  A    between atoms: _20  and  _21
REMARK   11  A    between atoms: _30  and  _32
REMARK   12  A    between atoms: _32  and  _33
REMARK   13  A    between atoms: _32  and  _35
REMARK   14  A    between atoms: _35  and  _36
REMARK   15  A    between atoms: _39  and  _41
REMARK   16  A    between atoms: _41  and  _42
REMARK   17  A    between atoms: _45  and  _47
REMARK   18  A    between atoms: _47  and  _48
REMARK   19  A    between atoms: _47  and  _50
REMARK   20  A    between atoms: _50  and  _51
REMARK   21  A    between atoms: _51  and  _52
REMARK   22  A    between atoms: _55  and  _57
REMARK   23  A    between atoms: _57  and  _58
REMARK   24  A    between atoms: _57  and  _60
REMARK   25  A    between atoms: _60  and  _61
REMARK   26  A    between atoms: _66  and  _68
REMARK   27  A    between atoms: _68  and  _69
REMARK   28  A    between atoms: _68  and  _71
REMARK   29  A    between atoms: _71  and  _72
REMARK   30  A    between atoms: _72  and  _73
REMARK   31  A    between atoms: _73  and  _74
REMARK   32  A    between atoms: _74  and  _75
REMARK   33  A    between atoms: _79  and  _81
REMARK   34  A    between atoms: _81  and  _82
REMARK   35  A    between atoms: _81  and  _84
REMARK   36  A    between atoms: _84  and  _85
REMARK   37  A    between atoms: _85  and  _86
REMARK   38  A    between atoms: _86  and  _87
REMARK   39  A    between atoms: _96  and  _98
REMARK   40  A    between atoms: _98  and  _99
REMARK   41  A    between atoms: _98  and  _101
REMARK   42  A    between atoms: _101  and  _102
REMARK   43  A    between atoms: _107  and  _109
REMARK   44  A    between atoms: _109  and  _110
REMARK   45  A    between atoms: _109  and  _112
REMARK   46  A    between atoms: _112  and  _113
REMARK   47  A    between atoms: _116  and  _118
REMARK   48  A    between atoms: _118  and  _119
REMARK   49  A    between atoms: _118  and  _121
REMARK   50  A    between atoms: _121  and  _122
REMARK   51  A    between atoms: _132  and  _134
REMARK   52  A    between atoms: _134  and  _135
REMARK   53  A    between atoms: _134  and  _137
REMARK   54  A    between atoms: _137  and  _138
REMARK   55  A    between atoms: _143  and  _145
REMARK   56  A    between atoms: _145  and  _146
REMARK   57  A    between atoms: _145  and  _148
REMARK   58  A    between atoms: _148  and  _149
REMARK   59  A    between atoms: _151  and  _153
REMARK   60  A    between atoms: _153  and  _154
REMARK   61  A    between atoms: _153  and  _156
REMARK   62  A    between atoms: _156  and  _157
REMARK   63  A    between atoms: _157  and  _158
REMARK   64  A    between atoms: _163  and  _165
REMARK   65  A    between atoms: _165  and  _166
REMARK   66  A    between atoms: _165  and  _168
REMARK   67  A    between atoms: _168  and  _169
REMARK   68  A    between atoms: _172  and  _174
REMARK   69  A    between atoms: _174  and  _175
REMARK   70  A    between atoms: _174  and  _177
REMARK   71  A    between atoms: _177  and  _178
REMARK   72  A    between atoms: _183  and  _185
REMARK   73  A    between atoms: _185  and  _186
REMARK   74  A    between atoms: _185  and  _188
REMARK   75  A    between atoms: _188  and  _189
REMARK   76  A    between atoms: _189  and  _190
REMARK   77  A    between atoms: _193  and  _195
REMARK   78  A    between atoms: _195  and  _196
REMARK   79  A    between atoms: _195  and  _198
REMARK   80  A    between atoms: _198  and  _199
REMARK   81  A    between atoms: _204  and  _206
REMARK   82  A    between atoms: _206  and  _207
REMARK   83  A    between atoms: _206  and  _209
REMARK   84  A    between atoms: _209  and  _210
REMARK   85  A    between atoms: _213  and  _215
REMARK   86  A    between atoms: _215  and  _216
REMARK   87  A    between atoms: _215  and  _218
REMARK   88  A    between atoms: _218  and  _219
REMARK   89  A    between atoms: _224  and  _225
REMARK   90  A    between atoms: _227  and  _229
REMARK   91  A    between atoms: _229  and  _230
REMARK   92  A    between atoms: _229  and  _232
REMARK   93  A    between atoms: _232  and  _233
REMARK   94  A    between atoms: _233  and  _234
REMARK   95  A    between atoms: _239  and  _241
REMARK   96  A    between atoms: _241  and  _242
REMARK   97  A    between atoms: _241  and  _244
REMARK   98  A    between atoms: _244  and  _245
REMARK   99  A    between atoms: _250  and  _252
REMARK  100  A    between atoms: _252  and  _253
REMARK  101  A    between atoms: _252  and  _255
REMARK  102  A    between atoms: _255  and  _256
REMARK  103  A    between atoms: _259  and  _261
REMARK  104  A    between atoms: _261  and  _262
REMARK  105  A    between atoms: _261  and  _264
REMARK  106  A    between atoms: _264  and  _265
REMARK  107  A    between atoms: _265  and  _266
REMARK  108  A    between atoms: _269  and  _271
REMARK  109  A    between atoms: _271  and  _272
REMARK  110  A    between atoms: _271  and  _274
REMARK  111  A    between atoms: _274  and  _275
REMARK  112  A    between atoms: _278  and  _280
REMARK  113  A    between atoms: _280  and  _281
REMARK  114  A    between atoms: _280  and  _283
REMARK  115  A    between atoms: _283  and  _284
REMARK  116  A    between atoms: _294  and  _296
REMARK  117  A    between atoms: _296  and  _297
REMARK  118  A    between atoms: _299  and  _301
REMARK  119  A    between atoms: _301  and  _302
REMARK  120  A    between atoms: _301  and  _304
REMARK  121  A    between atoms: _304  and  _305
REMARK  122  A    between atoms: _308  and  _310
REMARK  123  A    between atoms: _310  and  _311
REMARK  124  A    between atoms: _310  and  _313
REMARK  125  A    between atoms: _313  and  _314
REMARK  126  A    between atoms: _316  and  _318
REMARK  127  A    between atoms: _318  and  _319
REMARK  128  A    between atoms: _318  and  _321
REMARK  129  A    between atoms: _321  and  _322
REMARK  130  A    between atoms: _332  and  _334
REMARK  131  A    between atoms: _334  and  _335
REMARK  132  A    between atoms: _334  and  _337
REMARK  133  A    between atoms: _337  and  _338
REMARK  134  A    between atoms: _338  and  _339
REMARK  135  A    between atoms: _339  and  _340
REMARK                            x       y       z     vdW  Elec       q    Type
REMARK                         _______ _______ _______ _____ _____    ______ ____
ROOT
ATOM      1  NE  ARG A   1      20.844  13.153  19.081  0.00  0.00    -0.265 N 
ATOM      2  HE  ARG A   1      21.864  13.349  19.140  0.00  0.00    +0.259 HD
ATOM      3  CZ  ARG A   1      20.052  14.202  19.118  0.00  0.00    +0.342 C 
ATOM      4  NH2 ARG A   1      20.589  15.407  19.290  0.00  0.00    -0.292 N 
ATOM      5 HH21 ARG A   1      21.619  15.507  19.393  0.00  0.00    +0.255 HD
ATOM      6 HH22 ARG A   1      19.979  16.249  19.322  0.00  0.00    +0.255 HD
ATOM      7  NH1 ARG A   1      18.732  14.106  18.969  0.00  0.00    -0.292 N 
ATOM      8 HH11 ARG A   1      18.141  14.961  19.005  0.00  0.00    +0.255 HD
ATOM      9 HH12 ARG A   1      18.292  13.176  18.817  0.00  0.00    +0.255 HD
ENDROOT
BRANCH   1  10
ATOM     10  CD  ARG A   1      20.465  11.741  18.967  0.00  0.00    +0.174 C 
BRANCH  10  11
ATOM     11  CG  ARG A   1      20.535  11.140  20.376  0.00  0.00    +0.045 C 
BRANCH  11  12
ATOM     12  CB  ARG A   1      19.370  11.544  21.210  0.00  0.00    +0.029 C 
BRANCH  12  13
ATOM     13  CA  ARG A   1      19.431  11.156  22.730  0.00  0.00    +0.133 C 
BRANCH  13  14
ATOM     14  N   ARG A   1      19.541   9.732  22.900  0.00  0.00    -0.239 NA
ATOM     15  H   ARG A   1      19.064   9.115  22.212  0.00  0.00    +0.142 HD
ENDBRANCH  13  14
BRANCH  13  16
ATOM     16  C   ARG A   1      18.141  11.606  23.342  0.00  0.00    +0.224 C 
ATOM     17  O   ARG A   1      17.080  11.027  23.040  0.00  0.00    -0.287 OA
ENDBRANCH  13  16
ENDBRANCH  12  13
ENDBRANCH  11  12
ENDBRANCH  10  11
ENDBRANCH   1  10
TORSDOF 6
REMARK  Name = ../refined-set-2016/1od8/1od8_pocket.pdb
REMARK  135 active torsions:
REMARK  status: ('A' for Active; 'I' for Inactive)
REMARK    1  A    between atoms: _1  and  _3
REMARK    2  A    between atoms: _3  and  _4
REMARK    3  A    between atoms: _7  and  _9
REMARK    4  A    between atoms: _9  and  _10
REMARK    5  A    between atoms: _13  and  _15
REMARK    6  A    between atoms: _15  and  _16
REMARK    7  A    between atoms: _15  and  _18
REMARK    8  A    between atoms: _18  and  _19
REMARK    9  A    between atoms: _19  and  _20
REMARK   10  A    between atoms: _20  and  _21
REMARK   11  A    between atoms: _30  and  _32
REMARK   12  A    between atoms: _32  and  _33
REMARK   13  A    between atoms: _32  and  _35
REMARK   14  A    between atoms: _35  and  _36
REMARK   15  A    between atoms: _39  and  _41
REMARK   16  A    between atoms: _41  and  _42
REMARK   17  A    between atoms: _45  and  _47
REMARK   18  A    between atoms: _47  and  _48
REMARK   19  A    between atoms: _47  and  _50
REMARK   20  A    between atoms: _50  and  _51
REMARK   21  A    between atoms: _51  and  _52
REMARK   22  A    between atoms: _55  and  _57
REMARK   23  A    between atoms: _57  and  _58
REMARK   24  A    between atoms: _57  and  _60
REMARK   25  A    between atoms: _60  and  _61
REMARK   26  A    between atoms: _66  and  _68
REMARK   27  A    between atoms: _68  and  _69
REMARK   28  A    between atoms: _68  and  _71
REMARK   29  A    between atoms: _71  and  _72
REMARK   30  A    between atoms: _72  and  _73
REMARK   31  A    between atoms: _73  and  _74
REMARK   32  A    between atoms: _74  and  _75
REMARK   33  A    between atoms: _79  and  _81
REMARK   34  A    between atoms: _81  and  _82
REMARK   35  A    between atoms: _81  and  _84
REMARK   36  A    between atoms: _84  and  _85
REMARK   37  A    between atoms: _85  and  _86
REMARK   38  A    between atoms: _86  and  _87
REMARK   39  A    between atoms: _96  and  _98
REMARK   40  A    between atoms: _98  and  _99
REMARK   41  A    between atoms: _98  and  _101
REMARK   42  A    between atoms: _101  and  _102
REMARK   43  A    between atoms: _107  and  _109
REMARK   44  A    between atoms: _109  and  _110
REMARK   45  A    between atoms: _109  and  _112
REMARK   46  A    between atoms: _112  and  _113
REMARK   47  A    between atoms: _116  and  _118
REMARK   48  A    between atoms: _118  and  _119
REMARK   49  A    between atoms: _118  and  _121
REMARK   50  A    between atoms: _121  and  _122
REMARK   51  A    between atoms: _132  and  _134
REMARK   52  A    between atoms: _134  and  _135
REMARK   53  A    between atoms: _134  and  _137
REMARK   54  A    between atoms: _137  and  _138
REMARK   55  A    between atoms: _143  and  _145
REMARK   56  A    between atoms: _145  and  _146
REMARK   57  A    between atoms: _145  and  _148
REMARK   58  A    between atoms: _148  and  _149
REMARK   59  A    between atoms: _151  and  _153
REMARK   60  A    between atoms: _153  and  _154
REMARK   61  A    between atoms: _153  and  _156
REMARK   62  A    between atoms: _156  and  _157
REMARK   63  A    between atoms: _157  and  _158
REMARK   64  A    between atoms: _163  and  _165
REMARK   65  A    between atoms: _165  and  _166
REMARK   66  A    between atoms: _165  and  _168
REMARK   67  A    between atoms: _168  and  _169
REMARK   68  A    between atoms: _172  and  _174
REMARK   69  A    between atoms: _174  and  _175
REMARK   70  A    between atoms: _174  and  _177
REMARK   71  A    between atoms: _177  and  _178
REMARK   72  A    between atoms: _183  and  _185
REMARK   73  A    between atoms: _185  and  _186
REMARK   74  A    between atoms: _185  and  _188
REMARK   75  A    between atoms: _188  and  _189
REMARK   76  A    between atoms: _189  and  _190
REMARK   77  A    between atoms: _193  and  _195
REMARK   78  A    between atoms: _195  and  _196
REMARK   79  A    between atoms: _195  and  _198
REMARK   80  A    between atoms: _198  and  _199
REMARK   81  A    between atoms: _204  and  _206
REMARK   82  A    between atoms: _206  and  _207
REMARK   83  A    between atoms: _206  and  _209
REMARK   84  A    between atoms: _209  and  _210
REMARK   85  A    between atoms: _213  and  _215
REMARK   86  A    between atoms: _215  and  _216
REMARK   87  A    between atoms: _215  and  _218
REMARK   88  A    between atoms: _218  and  _219
REMARK   89  A    between atoms: _224  and  _225
REMARK   90  A    between atoms: _227  and  _229
REMARK   91  A    between atoms: _229  and  _230
REMARK   92  A    between atoms: _229  and  _232
REMARK   93  A    between atoms: _232  and  _233
REMARK   94  A    between atoms: _233  and  _234
REMARK   95  A    between atoms: _239  and  _241
REMARK   96  A    between atoms: _241  and  _242
REMARK   97  A    between atoms: _241  and  _244
REMARK   98  A    between atoms: _244  and  _245
REMARK   99  A    between atoms: _250  and  _252
REMARK  100  A    between atoms: _252  and  _253
REMARK  101  A    between atoms: _252  and  _255
REMARK  102  A    between atoms: _255  and  _256
REMARK  103  A    between atoms: _259  and  _261
REMARK  104  A    between atoms: _261  and  _262
REMARK  105  A    between atoms: _261  and  _264
REMARK  106  A    between atoms: _264  and  _265
REMARK  107  A    between atoms: _265  and  _266
REMARK  108  A    between atoms: _269  and  _271
REMARK  109  A    between atoms: _271  and  _272
REMARK  110  A    between atoms: _271  and  _274
REMARK  111  A    between atoms: _274  and  _275
REMARK  112  A    between atoms: _278  and  _280
REMARK  113  A    between atoms: _280  and  _281
REMARK  114  A    between atoms: _280  and  _283
REMARK  115  A    between atoms: _283  and  _284
REMARK  116  A    between atoms: _294  and  _296
REMARK  117  A    between atoms: _296  and  _297
REMARK  118  A    between atoms: _299  and  _301
REMARK  119  A    between atoms: _301  and  _302
REMARK  120  A    between atoms: _301  and  _304
REMARK  121  A    between atoms: _304  and  _305
REMARK  122  A    between atoms: _308  and  _310
REMARK  123  A    between atoms: _310  and  _311
REMARK  124  A    between atoms: _310  and  _313
REMARK  125  A    between atoms: _313  and  _314
REMARK  126  A    between atoms: _316  and  _318
REMARK  127  A    between atoms: _318  and  _319
REMARK  128  A    between atoms: _318  and  _321
REMARK  129  A    between atoms: _321  and  _322
REMARK  130  A    between atoms: _332  and  _334
REMARK  131  A    between atoms: _334  and  _335
REMARK  132  A    between atoms: _334  and  _337
REMARK  133  A    between atoms: _337  and  _338
REMARK  134  A    between atoms: _338  and  _339
REMARK  135  A    between atoms: _339  and  _340
REMARK                            x       y       z     vdW  Elec       q    Type
REMARK                         _______ _______ _______ _____ _____    ______ ____
ROOT
ATOM      1  C   HIS A   1      12.910  15.172  23.385  0.00  0.00    +0.239 C 
ATOM      2  N   THR A   2      12.530  16.408  23.731  0.00  0.00    -0.296 N 
ATOM      3  H   THR A   2      11.571  16.472  24.129  0.00  0.00    +0.150 HD
ATOM      4  O   HIS A   1      12.161  14.232  23.565  0.00  0.00    -0.274 OA
ENDROOT
BRANCH   1   5
ATOM      5  CA  HIS A   1      14.275  14.894  22.767  0.00  0.00    +0.151 C 
BRANCH   5   6
ATOM      6  N   HIS A   1      15.010  14.049  23.693  0.00  0.00    -0.238 NA
ATOM      7  H   HIS A   1      14.492  13.315  24.217  0.00  0.00    +0.142 HD
ENDBRANCH   5   6
BRANCH   5   8
ATOM      8  CB  HIS A   1      14.141  14.177  21.426  0.00  0.00    +0.074 C 
BRANCH   8   9
ATOM      9  CG  HIS A   1      13.369  14.928  20.410  0.00  0.00    +0.082 A 
ATOM     10  CD2 HIS A   1      12.092  14.790  19.982  0.00  0.00    +0.115 A 
ATOM     11  NE2 HIS A   1      11.841  15.748  19.021  0.00  0.00    -0.221 NA
ATOM     12  CE1 HIS A   1      12.949  16.434  18.870  0.00  0.00    +0.199 A 
ATOM     13  ND1 HIS A   1      13.897  15.963  19.699  0.00  0.00    -0.227 NA
ENDBRANCH   8   9
ENDBRANCH   5   8
ENDBRANCH   1   5
BRANCH   2  14
ATOM     14  CA  THR A   2      13.233  17.672  23.643  0.00  0.00    +0.164 C 
BRANCH  14  15
ATOM     15  C   THR A   2      12.716  18.540  24.780  0.00  0.00    +0.229 C 
ATOM     16  O   THR A   2      11.576  18.374  25.212  0.00  0.00    -0.286 OA
ENDBRANCH  14  15
BRANCH  14  17
ATOM     17  CB  THR A   2      13.003  18.336  22.285  0.00  0.00    +0.136 C 
ATOM     18  CG2 THR A   2      11.547  18.555  21.984  0.00  0.00    +0.034 C 
BRANCH  17  19
ATOM     19  OG1 THR A   2      13.655  19.596  22.232  0.00  0.00    -0.382 OA
ATOM     20  HG1 THR A   2      14.627  19.469  22.368  0.00  0.00    +0.210 HD
ENDBRANCH  17  19
ENDBRANCH  14  17
ENDBRANCH   2  14
TORSDOF 8
REMARK  Name = ../refined-set-2016/1od8/1od8_pocket.pdb
REMARK  135 active torsions:
REMARK  status: ('A' for Active; 'I' for Inactive)
REMARK    1  A    between atoms: _1  and  _3
REMARK    2  A    between atoms: _3  and  _4
REMARK    3  A    between atoms: _7  and  _9
REMARK    4  A    between atoms: _9  and  _10
REMARK    5  A    between atoms: _13  and  _15
REMARK    6  A    between atoms: _15  and  _16
REMARK    7  A    between atoms: _15  and  _18
REMARK    8  A    between atoms: _18  and  _19
REMARK    9  A    between atoms: _19  and  _20
REMARK   10  A    between atoms: _20  and  _21
REMARK   11  A    between atoms: _30  and  _32
REMARK   12  A    between atoms: _32  and  _33
REMARK   13  A    between atoms: _32  and  _35
REMARK   14  A    between atoms: _35  and  _36
REMARK   15  A    between atoms: _39  and  _41
REMARK   16  A    between atoms: _41  and  _42
REMARK   17  A    between atoms: _45  and  _47
REMARK   18  A    between atoms: _47  and  _48
REMARK   19  A    between atoms: _47  and  _50
REMARK   20  A    between atoms: _50  and  _51
REMARK   21  A    between atoms: _51  and  _52
REMARK   22  A    between atoms: _55  and  _57
REMARK   23  A    between atoms: _57  and  _58
REMARK   24  A    between atoms: _57  and  _60
REMARK   25  A    between atoms: _60  and  _61
REMARK   26  A    between atoms: _66  and  _68
REMARK   27  A    between atoms: _68  and  _69
REMARK   28  A    between atoms: _68  and  _71
REMARK   29  A    between atoms: _71  and  _72
REMARK   30  A    between atoms: _72  and  _73
REMARK   31  A    between atoms: _73  and  _74
REMARK   32  A    between atoms: _74  and  _75
REMARK   33  A    between atoms: _79  and  _81
REMARK   34  A    between atoms: _81  and  _82
REMARK   35  A    between atoms: _81  and  _84
REMARK   36  A    between atoms: _84  and  _85
REMARK   37  A    between atoms: _85  and  _86
REMARK   38  A    between atoms: _86  and  _87
REMARK   39  A    between atoms: _96  and  _98
REMARK   40  A    between atoms: _98  and  _99
REMARK   41  A    between atoms: _98  and  _101
REMARK   42  A    between atoms: _101  and  _102
REMARK   43  A    between atoms: _107  and  _109
REMARK   44  A    between atoms: _109  and  _110
REMARK   45  A    between atoms: _109  and  _112
REMARK   46  A    between atoms: _112  and  _113
REMARK   47  A    between atoms: _116  and  _118
REMARK   48  A    between atoms: _118  and  _119
REMARK   49  A    between atoms: _118  and  _121
REMARK   50  A    between atoms: _121  and  _122
REMARK   51  A    between atoms: _132  and  _134
REMARK   52  A    between atoms: _134  and  _135
REMARK   53  A    between atoms: _134  and  _137
REMARK   54  A    between atoms: _137  and  _138
REMARK   55  A    between atoms: _143  and  _145
REMARK   56  A    between atoms: _145  and  _146
REMARK   57  A    between atoms: _145  and  _148
REMARK   58  A    between atoms: _148  and  _149
REMARK   59  A    between atoms: _151  and  _153
REMARK   60  A    between atoms: _153  and  _154
REMARK   61  A    between atoms: _153  and  _156
REMARK   62  A    between atoms: _156  and  _157
REMARK   63  A    between atoms: _157  and  _158
REMARK   64  A    between atoms: _163  and  _165
REMARK   65  A    between atoms: _165  and  _166
REMARK   66  A    between atoms: _165  and  _168
REMARK   67  A    between atoms: _168  and  _169
REMARK   68  A    between atoms: _172  and  _174
REMARK   69  A    between atoms: _174  and  _175
REMARK   70  A    between atoms: _174  and  _177
REMARK   71  A    between atoms: _177  and  _178
REMARK   72  A    between atoms: _183  and  _185
REMARK   73  A    between atoms: _185  and  _186
REMARK   74  A    between atoms: _185  and  _188
REMARK   75  A    between atoms: _188  and  _189
REMARK   76  A    between atoms: _189  and  _190
REMARK   77  A    between atoms: _193  and  _195
REMARK   78  A    between atoms: _195  and  _196
REMARK   79  A    between atoms: _195  and  _198
REMARK   80  A    between atoms: _198  and  _199
REMARK   81  A    between atoms: _204  and  _206
REMARK   82  A    between atoms: _206  and  _207
REMARK   83  A    between atoms: _206  and  _209
REMARK   84  A    between atoms: _209  and  _210
REMARK   85  A    between atoms: _213  and  _215
REMARK   86  A    between atoms: _215  and  _216
REMARK   87  A    between atoms: _215  and  _218
REMARK   88  A    between atoms: _218  and  _219
REMARK   89  A    between atoms: _224  and  _225
REMARK   90  A    between atoms: _227  and  _229
REMARK   91  A    between atoms: _229  and  _230
REMARK   92  A    between atoms: _229  and  _232
REMARK   93  A    between atoms: _232  and  _233
REMARK   94  A    between atoms: _233  and  _234
REMARK   95  A    between atoms: _239  and  _241
REMARK   96  A    between atoms: _241  and  _242
REMARK   97  A    between atoms: _241  and  _244
REMARK   98  A    between atoms: _244  and  _245
REMARK   99  A    between atoms: _250  and  _252
REMARK  100  A    between atoms: _252  and  _253
REMARK  101  A    between atoms: _252  and  _255
REMARK  102  A    between atoms: _255  and  _256
REMARK  103  A    between atoms: _259  and  _261
REMARK  104  A    between atoms: _261  and  _262
REMARK  105  A    between atoms: _261  and  _264
REMARK  106  A    between atoms: _264  and  _265
REMARK  107  A    between atoms: _265  and  _266
REMARK  108  A    between atoms: _269  and  _271
REMARK  109  A    between atoms: _271  and  _272
REMARK  110  A    between atoms: _271  and  _274
REMARK  111  A    between atoms: _274  and  _275
REMARK  112  A    between atoms: _278  and  _280
REMARK  113  A    between atoms: _280  and  _281
REMARK  114  A    between atoms: _280  and  _283
REMARK  115  A    between atoms: _283  and  _284
REMARK  116  A    between atoms: _294  and  _296
REMARK  117  A    between atoms: _296  and  _297
REMARK  118  A    between atoms: _299  and  _301
REMARK  119  A    between atoms: _301  and  _302
REMARK  120  A    between atoms: _301  and  _304
REMARK  121  A    between atoms: _304  and  _305
REMARK  122  A    between atoms: _308  and  _310
REMARK  123  A    between atoms: _310  and  _311
REMARK  124  A    between atoms: _310  and  _313
REMARK  125  A    between atoms: _313  and  _314
REMARK  126  A    between atoms: _316  and  _318
REMARK  127  A    between atoms: _318  and  _319
REMARK  128  A    between atoms: _318  and  _321
REMARK  129  A    between atoms: _321  and  _322
REMARK  130  A    between atoms: _332  and  _334
REMARK  131  A    between atoms: _334  and  _335
REMARK  132  A    between atoms: _334  and  _337
REMARK  133  A    between atoms: _337  and  _338
REMARK  134  A    between atoms: _338  and  _339
REMARK  135  A    between atoms: _339  and  _340
REMARK                            x       y       z     vdW  Elec       q    Type
REMARK                         _______ _______ _______ _____ _____    ______ ____
ROOT
ATOM      1  CA  HIS A   2       6.605  25.361  20.783  0.00  0.00    +0.155 C 
ENDROOT
BRANCH   1   4
ATOM      2  C   TRP A   1       8.328  24.161  22.014  0.00  0.00    +0.239 C 
ATOM      3  O   TRP A   1       7.590  24.038  23.002  0.00  0.00    -0.274 OA
ATOM      4  N   HIS A   2       7.956  24.806  20.925  0.00  0.00    -0.297 N 
ATOM      5  H   HIS A   2       8.637  24.924  20.148  0.00  0.00    +0.150 HD
BRANCH   2   6
ATOM      6  CA  TRP A   1       9.710  23.544  22.015  0.00  0.00    +0.149 C 
BRANCH   6   7
ATOM      7  N   TRP A   1      10.237  23.649  23.366  0.00  0.00    -0.238 NA
ATOM      8  H   TRP A   1       9.574  23.826  24.148  0.00  0.00    +0.142 HD
ENDBRANCH   6   7
BRANCH   6   9
ATOM      9  CB  TRP A   1       9.564  22.074  21.625  0.00  0.00    +0.054 C 
BRANCH   9  10
ATOM     10  CG  TRP A   1       9.264  21.760  20.192  0.00  0.00    -0.002 A 
ATOM     11  CD2 TRP A   1       8.761  20.509  19.713  0.00  0.00    +0.013 A 
ATOM     12  CE3 TRP A   1       8.365  19.350  20.316  0.00  0.00    +0.001 A 
ATOM     13  CZ3 TRP A   1       7.914  18.310  19.536  0.00  0.00    +0.000 A 
ATOM     14  CH2 TRP A   1       7.827  18.411  18.147  0.00  0.00    +0.001 A 
ATOM     15  CZ2 TRP A   1       8.212  19.554  17.528  0.00  0.00    +0.017 A 
ATOM     16  CE2 TRP A   1       8.668  20.596  18.313  0.00  0.00    +0.056 A 
ATOM     17  NE1 TRP A   1       9.094  21.847  17.954  0.00  0.00    -0.352 N 
ATOM     18  HE1 TRP A   1       9.133  22.214  16.982  0.00  0.00    +0.166 HD
ATOM     19  CD1 TRP A   1       9.462  22.541  19.081  0.00  0.00    +0.068 A 
ENDBRANCH   9  10
ENDBRANCH   6   9
ENDBRANCH   2   6
ENDBRANCH   1   4
BRANCH   1  20
ATOM     20  C   HIS A   2       5.533  24.293  20.628  0.00  0.00    +0.241 C 
ATOM     21  O   HIS A   2       4.368  24.572  20.877  0.00  0.00    -0.273 OA
ATOM     22  N   SER A   3       5.903  23.087  20.193  0.00  0.00    -0.295 N 
ATOM     23  H   SER A   3       6.918  22.886  20.089  0.00  0.00    +0.150 HD
BRANCH  22  24
ATOM     24  CA  SER A   3       4.957  22.050  19.860  0.00  0.00    +0.178 C 
BRANCH  24  25
ATOM     25  C   SER A   3       4.881  20.999  20.971  0.00  0.00    +0.243 C 
ATOM     26  O   SER A   3       5.835  20.814  21.725  0.00  0.00    -0.273 OA
ATOM     27  N   GLN A   4       3.724  20.321  21.065  0.00  0.00    -0.298 N 
ATOM     28  H   GLN A   4       2.949  20.559  20.414  0.00  0.00    +0.150 HD
BRANCH  27  29
ATOM     29  CA  GLN A   4       3.520  19.272  22.041  0.00  0.00    +0.137 C 
BRANCH  29  30
ATOM     30  C   GLN A   4       3.780  19.757  23.457  0.00  0.00    +0.227 C 
ATOM     31  O   GLN A   4       4.246  19.039  24.316  0.00  0.00    -0.286 OA
ENDBRANCH  29  30
BRANCH  29  32
ATOM     32  CB  GLN A   4       4.238  17.972  21.669  0.00  0.00    +0.037 C 
BRANCH  32  33
ATOM     33  CG  GLN A   4       3.597  17.337  20.459  0.00  0.00    +0.087 C 
BRANCH  33  34
ATOM     34  CD  GLN A   4       4.362  16.120  19.965  0.00  0.00    +0.219 C 
ATOM     35  NE2 GLN A   4       4.035  14.939  20.454  0.00  0.00    -0.329 N 
ATOM     36 HE21 GLN A   4       3.260  14.858  21.143  0.00  0.00    +0.145 HD
ATOM     37 HE22 GLN A   4       4.552  14.089  20.151  0.00  0.00    +0.145 HD
ATOM     38  OE1 GLN A   4       5.274  16.284  19.143  0.00  0.00    -0.275 OA
ENDBRANCH  33  34
ENDBRANCH  32  33
ENDBRANCH  29  32
ENDBRANCH  27  29
ENDBRANCH  24  25
BRANCH  24  39
ATOM     39  CB  SER A   3       5.314  21.388  18.536  0.00  0.00    +0.166 C 
BRANCH  39  40
ATOM     40  OG  SER A   3       4.231  20.634  18.044  0.00  0.00    -0.380 OA
ATOM     41  H   SER A   3       3.453  21.229  17.903  0.00  0.00    +0.211 HD
ENDBRANCH  39  40
ENDBRANCH  24  39
ENDBRANCH  22  24
ENDBRANCH   1  20
BRANCH   1  42
ATOM     42  CB  HIS A   2       6.536  26.273  19.542  0.00  0.00    +0.076 C 
BRANCH  42  43
ATOM     43  CG  HIS A   2       6.619  25.556  18.244  0.00  0.00    +0.082 A 
ATOM     44  ND1 HIS A   2       7.807  25.120  17.708  0.00  0.00    -0.227 NA
ATOM     45  CE1 HIS A   2       7.523  24.519  16.564  0.00  0.00    +0.199 A 
ATOM     46  NE2 HIS A   2       6.218  24.543  16.349  0.00  0.00    -0.221 NA
ATOM     47  CD2 HIS A   2       5.634  25.194  17.391  0.00  0.00    +0.115 A 
ENDBRANCH  42  43
ENDBRANCH   1  42
TORSDOF 17
REMARK  Name = ../refined-set-2016/1od8/1od8_pocket.pdb
REMARK  135 active torsions:
REMARK  status: ('A' for Active; 'I' for Inactive)
REMARK    1  A    between atoms: _1  and  _3
REMARK    2  A    between atoms: _3  and  _4
REMARK    3  A    between atoms: _7  and  _9
REMARK    4  A    between atoms: _9  and  _10
REMARK    5  A    between atoms: _13  and  _15
REMARK    6  A    between atoms: _15  and  _16
REMARK    7  A    between atoms: _15  and  _18
REMARK    8  A    between atoms: _18  and  _19
REMARK    9  A    between atoms: _19  and  _20
REMARK   10  A    between atoms: _20  and  _21
REMARK   11  A    between atoms: _30  and  _32
REMARK   12  A    between atoms: _32  and  _33
REMARK   13  A    between atoms: _32  and  _35
REMARK   14  A    between atoms: _35  and  _36
REMARK   15  A    between atoms: _39  and  _41
REMARK   16  A    between atoms: _41  and  _42
REMARK   17  A    between atoms: _45  and  _47
REMARK   18  A    between atoms: _47  and  _48
REMARK   19  A    between atoms: _47  and  _50
REMARK   20  A    between atoms: _50  and  _51
REMARK   21  A    between atoms: _51  and  _52
REMARK   22  A    between atoms: _55  and  _57
REMARK   23  A    between atoms: _57  and  _58
REMARK   24  A    between atoms: _57  and  _60
REMARK   25  A    between atoms: _60  and  _61
REMARK   26  A    between atoms: _66  and  _68
REMARK   27  A    between atoms: _68  and  _69
REMARK   28  A    between atoms: _68  and  _71
REMARK   29  A    between atoms: _71  and  _72
REMARK   30  A    between atoms: _72  and  _73
REMARK   31  A    between atoms: _73  and  _74
REMARK   32  A    between atoms: _74  and  _75
REMARK   33  A    between atoms: _79  and  _81
REMARK   34  A    between atoms: _81  and  _82
REMARK   35  A    between atoms: _81  and  _84
REMARK   36  A    between atoms: _84  and  _85
REMARK   37  A    between atoms: _85  and  _86
REMARK   38  A    between atoms: _86  and  _87
REMARK   39  A    between atoms: _96  and  _98
REMARK   40  A    between atoms: _98  and  _99
REMARK   41  A    between atoms: _98  and  _101
REMARK   42  A    between atoms: _101  and  _102
REMARK   43  A    between atoms: _107  and  _109
REMARK   44  A    between atoms: _109  and  _110
REMARK   45  A    between atoms: _109  and  _112
REMARK   46  A    between atoms: _112  and  _113
REMARK   47  A    between atoms: _116  and  _118
REMARK   48  A    between atoms: _118  and  _119
REMARK   49  A    between atoms: _118  and  _121
REMARK   50  A    between atoms: _121  and  _122
REMARK   51  A    between atoms: _132  and  _134
REMARK   52  A    between atoms: _134  and  _135
REMARK   53  A    between atoms: _134  and  _137
REMARK   54  A    between atoms: _137  and  _138
REMARK   55  A    between atoms: _143  and  _145
REMARK   56  A    between atoms: _145  and  _146
REMARK   57  A    between atoms: _145  and  _148
REMARK   58  A    between atoms: _148  and  _149
REMARK   59  A    between atoms: _151  and  _153
REMARK   60  A    between atoms: _153  and  _154
REMARK   61  A    between atoms: _153  and  _156
REMARK   62  A    between atoms: _156  and  _157
REMARK   63  A    between atoms: _157  and  _158
REMARK   64  A    between atoms: _163  and  _165
REMARK   65  A    between atoms: _165  and  _166
REMARK   66  A    between atoms: _165  and  _168
REMARK   67  A    between atoms: _168  and  _169
REMARK   68  A    between atoms: _172  and  _174
REMARK   69  A    between atoms: _174  and  _175
REMARK   70  A    between atoms: _174  and  _177
REMARK   71  A    between atoms: _177  and  _178
REMARK   72  A    between atoms: _183  and  _185
REMARK   73  A    between atoms: _185  and  _186
REMARK   74  A    between atoms: _185  and  _188
REMARK   75  A    between atoms: _188  and  _189
REMARK   76  A    between atoms: _189  and  _190
REMARK   77  A    between atoms: _193  and  _195
REMARK   78  A    between atoms: _195  and  _196
REMARK   79  A    between atoms: _195  and  _198
REMARK   80  A    between atoms: _198  and  _199
REMARK   81  A    between atoms: _204  and  _206
REMARK   82  A    between atoms: _206  and  _207
REMARK   83  A    between atoms: _206  and  _209
REMARK   84  A    between atoms: _209  and  _210
REMARK   85  A    between atoms: _213  and  _215
REMARK   86  A    between atoms: _215  and  _216
REMARK   87  A    between atoms: _215  and  _218
REMARK   88  A    between atoms: _218  and  _219
REMARK   89  A    between atoms: _224  and  _225
REMARK   90  A    between atoms: _227  and  _229
REMARK   91  A    between atoms: _229  and  _230
REMARK   92  A    between atoms: _229  and  _232
REMARK   93  A    between atoms: _232  and  _233
REMARK   94  A    between atoms: _233  and  _234
REMARK   95  A    between atoms: _239  and  _241
REMARK   96  A    between atoms: _241  and  _242
REMARK   97  A    between atoms: _241  and  _244
REMARK   98  A    between atoms: _244  and  _245
REMARK   99  A    between atoms: _250  and  _252
REMARK  100  A    between atoms: _252  and  _253
REMARK  101  A    between atoms: _252  and  _255
REMARK  102  A    between atoms: _255  and  _256
REMARK  103  A    between atoms: _259  and  _261
REMARK  104  A    between atoms: _261  and  _262
REMARK  105  A    between atoms: _261  and  _264
REMARK  106  A    between atoms: _264  and  _265
REMARK  107  A    between atoms: _265  and  _266
REMARK  108  A    between atoms: _269  and  _271
REMARK  109  A    between atoms: _271  and  _272
REMARK  110  A    between atoms: _271  and  _274
REMARK  111  A    between atoms: _274  and  _275
REMARK  112  A    between atoms: _278  and  _280
REMARK  113  A    between atoms: _280  and  _281
REMARK  114  A    between atoms: _280  and  _283
REMARK  115  A    between atoms: _283  and  _284
REMARK  116  A    between atoms: _294  and  _296
REMARK  117  A    between atoms: _296  and  _297
REMARK  118  A    between atoms: _299  and  _301
REMARK  119  A    between atoms: _301  and  _302
REMARK  120  A    between atoms: _301  and  _304
REMARK  121  A    between atoms: _304  and  _305
REMARK  122  A    between atoms: _308  and  _310
REMARK  123  A    between atoms: _310  and  _311
REMARK  124  A    between atoms: _310  and  _313
REMARK  125  A    between atoms: _313  and  _314
REMARK  126  A    between atoms: _316  and  _318
REMARK  127  A    between atoms: _318  and  _319
REMARK  128  A    between atoms: _318  and  _321
REMARK  129  A    between atoms: _321  and  _322
REMARK  130  A    between atoms: _332  and  _334
REMARK  131  A    between atoms: _334  and  _335
REMARK  132  A    between atoms: _334  and  _337
REMARK  133  A    between atoms: _337  and  _338
REMARK  134  A    between atoms: _338  and  _339
REMARK  135  A    between atoms: _339  and  _340
REMARK                            x       y       z     vdW  Elec       q    Type
REMARK                         _______ _______ _______ _____ _____    ______ ____
ROOT
ATOM      1  CA  ASP A   1      17.888  18.525  22.123  0.00  0.00    +0.144 C 
ENDROOT
BRANCH   1   2
ATOM      2  N   ASP A   1      18.458  17.425  22.916  0.00  0.00    -0.239 NA
ATOM      3  H   ASP A   1      17.958  16.514  22.960  0.00  0.00    +0.142 HD
ENDBRANCH   1   2
BRANCH   1   4
ATOM      4  C   ASP A   1      17.264  19.475  23.144  0.00  0.00    +0.225 C 
ATOM      5  O   ASP A   1      16.114  19.300  23.562  0.00  0.00    -0.287 OA
ENDBRANCH   1   4
BRANCH   1   6
ATOM      6  CB  ASP A   1      16.853  17.999  21.132  0.00  0.00    +0.139 C 
BRANCH   6   7
ATOM      7  CG  ASP A   1      17.428  17.161  20.034  0.00  0.00    +0.367 C 
ATOM      8  OD2 ASP A   1      18.608  17.349  19.682  0.00  0.00    -0.246 OA
ATOM      9  OD1 ASP A   1      16.680  16.313  19.499  0.00  0.00    -0.246 OA
ENDBRANCH   6   7
ENDBRANCH   1   6
TORSDOF 4
REMARK  Name = ../refined-set-2016/1od8/1od8_pocket.pdb
REMARK  135 active torsions:
REMARK  status: ('A' for Active; 'I' for Inactive)
REMARK    1  A    between atoms: _1  and  _3
REMARK    2  A    between atoms: _3  and  _4
REMARK    3  A    between atoms: _7  and  _9
REMARK    4  A    between atoms: _9  and  _10
REMARK    5  A    between atoms: _13  and  _15
REMARK    6  A    between atoms: _15  and  _16
REMARK    7  A    between atoms: _15  and  _18
REMARK    8  A    between atoms: _18  and  _19
REMARK    9  A    between atoms: _19  and  _20
REMARK   10  A    between atoms: _20  and  _21
REMARK   11  A    between atoms: _30  and  _32
REMARK   12  A    between atoms: _32  and  _33
REMARK   13  A    between atoms: _32  and  _35
REMARK   14  A    between atoms: _35  and  _36
REMARK   15  A    between atoms: _39  and  _41
REMARK   16  A    between atoms: _41  and  _42
REMARK   17  A    between atoms: _45  and  _47
REMARK   18  A    between atoms: _47  and  _48
REMARK   19  A    between atoms: _47  and  _50
REMARK   20  A    between atoms: _50  and  _51
REMARK   21  A    between atoms: _51  and  _52
REMARK   22  A    between atoms: _55  and  _57
REMARK   23  A    between atoms: _57  and  _58
REMARK   24  A    between atoms: _57  and  _60
REMARK   25  A    between atoms: _60  and  _61
REMARK   26  A    between atoms: _66  and  _68
REMARK   27  A    between atoms: _68  and  _69
REMARK   28  A    between atoms: _68  and  _71
REMARK   29  A    between atoms: _71  and  _72
REMARK   30  A    between atoms: _72  and  _73
REMARK   31  A    between atoms: _73  and  _74
REMARK   32  A    between atoms: _74  and  _75
REMARK   33  A    between atoms: _79  and  _81
REMARK   34  A    between atoms: _81  and  _82
REMARK   35  A    between atoms: _81  and  _84
REMARK   36  A    between atoms: _84  and  _85
REMARK   37  A    between atoms: _85  and  _86
REMARK   38  A    between atoms: _86  and  _87
REMARK   39  A    between atoms: _96  and  _98
REMARK   40  A    between atoms: _98  and  _99
REMARK   41  A    between atoms: _98  and  _101
REMARK   42  A    between atoms: _101  and  _102
REMARK   43  A    between atoms: _107  and  _109
REMARK   44  A    between atoms: _109  and  _110
REMARK   45  A    between atoms: _109  and  _112
REMARK   46  A    between atoms: _112  and  _113
REMARK   47  A    between atoms: _116  and  _118
REMARK   48  A    between atoms: _118  and  _119
REMARK   49  A    between atoms: _118  and  _121
REMARK   50  A    between atoms: _121  and  _122
REMARK   51  A    between atoms: _132  and  _134
REMARK   52  A    between atoms: _134  and  _135
REMARK   53  A    between atoms: _134  and  _137
REMARK   54  A    between atoms: _137  and  _138
REMARK   55  A    between atoms: _143  and  _145
REMARK   56  A    between atoms: _145  and  _146
REMARK   57  A    between atoms: _145  and  _148
REMARK   58  A    between atoms: _148  and  _149
REMARK   59  A    between atoms: _151  and  _153
REMARK   60  A    between atoms: _153  and  _154
REMARK   61  A    between atoms: _153  and  _156
REMARK   62  A    between atoms: _156  and  _157
REMARK   63  A    between atoms: _157  and  _158
REMARK   64  A    between atoms: _163  and  _165
REMARK   65  A    between atoms: _165  and  _166
REMARK   66  A    between atoms: _165  and  _168
REMARK   67  A    between atoms: _168  and  _169
REMARK   68  A    between atoms: _172  and  _174
REMARK   69  A    between atoms: _174  and  _175
REMARK   70  A    between atoms: _174  and  _177
REMARK   71  A    between atoms: _177  and  _178
REMARK   72  A    between atoms: _183  and  _185
REMARK   73  A    between atoms: _185  and  _186
REMARK   74  A    between atoms: _185  and  _188
REMARK   75  A    between atoms: _188  and  _189
REMARK   76  A    between atoms: _189  and  _190
REMARK   77  A    between atoms: _193  and  _195
REMARK   78  A    between atoms: _195  and  _196
REMARK   79  A    between atoms: _195  and  _198
REMARK   80  A    between atoms: _198  and  _199
REMARK   81  A    between atoms: _204  and  _206
REMARK   82  A    between atoms: _206  and  _207
REMARK   83  A    between atoms: _206  and  _209
REMARK   84  A    between atoms: _209  and  _210
REMARK   85  A    between atoms: _213  and  _215
REMARK   86  A    between atoms: _215  and  _216
REMARK   87  A    between atoms: _215  and  _218
REMARK   88  A    between atoms: _218  and  _219
REMARK   89  A    between atoms: _224  and  _225
REMARK   90  A    between atoms: _227  and  _229
REMARK   91  A    between atoms: _229  and  _230
REMARK   92  A    between atoms: _229  and  _232
REMARK   93  A    between atoms: _232  and  _233
REMARK   94  A    between atoms: _233  and  _234
REMARK   95  A    between atoms: _239  and  _241
REMARK   96  A    between atoms: _241  and  _242
REMARK   97  A    between atoms: _241  and  _244
REMARK   98  A    between atoms: _244  and  _245
REMARK   99  A    between atoms: _250  and  _252
REMARK  100  A    between atoms: _252  and  _253
REMARK  101  A    between atoms: _252  and  _255
REMARK  102  A    between atoms: _255  and  _256
REMARK  103  A    between atoms: _259  and  _261
REMARK  104  A    between atoms: _261  and  _262
REMARK  105  A    between atoms: _261  and  _264
REMARK  106  A    between atoms: _264  and  _265
REMARK  107  A    between atoms: _265  and  _266
REMARK  108  A    between atoms: _269  and  _271
REMARK  109  A    between atoms: _271  and  _272
REMARK  110  A    between atoms: _271  and  _274
REMARK  111  A    between atoms: _274  and  _275
REMARK  112  A    between atoms: _278  and  _280
REMARK  113  A    between atoms: _280  and  _281
REMARK  114  A    between atoms: _280  and  _283
REMARK  115  A    between atoms: _283  and  _284
REMARK  116  A    between atoms: _294  and  _296
REMARK  117  A    between atoms: _296  and  _297
REMARK  118  A    between atoms: _299  and  _301
REMARK  119  A    between atoms: _301  and  _302
REMARK  120  A    between atoms: _301  and  _304
REMARK  121  A    between atoms: _304  and  _305
REMARK  122  A    between atoms: _308  and  _310
REMARK  123  A    between atoms: _310  and  _311
REMARK  124  A    between atoms: _310  and  _313
REMARK  125  A    between atoms: _313  and  _314
REMARK  126  A    between atoms: _316  and  _318
REMARK  127  A    between atoms: _318  and  _319
REMARK  128  A    between atoms: _318  and  _321
REMARK  129  A    between atoms: _321  and  _322
REMARK  130  A    between atoms: _332  and  _334
REMARK  131  A    between atoms: _334  and  _335
REMARK  132  A    between atoms: _334  and  _337
REMARK  133  A    between atoms: _337  and  _338
REMARK  134  A    between atoms: _338  and  _339
REMARK  135  A    between atoms: _339  and  _340
REMARK                            x       y       z     vdW  Elec       q    Type
REMARK                         _______ _______ _______ _____ _____    ______ ____
ROOT
ATOM      1  C   ASN A   1      13.085  23.619  18.300  0.00  0.00    +0.239 C 
ATOM      2  O   ASN A   1      12.177  24.258  18.853  0.00  0.00    -0.274 OA
ATOM      3  N   GLU A   2      13.415  23.794  17.024  0.00  0.00    -0.298 N 
ATOM      4  H   GLU A   2      14.329  23.423  16.694  0.00  0.00    +0.150 HD
ENDROOT
BRANCH   1   5
ATOM      5  CA  ASN A   1      13.865  22.540  19.071  0.00  0.00    +0.154 C 
BRANCH   5   6
ATOM      6  N   ASN A   1      14.243  23.058  20.365  0.00  0.00    -0.238 NA
ATOM      7  H   ASN A   1      13.497  23.421  20.993  0.00  0.00    +0.142 HD
ENDBRANCH   5   6
BRANCH   5   8
ATOM      8  CB  ASN A   1      12.955  21.318  19.274  0.00  0.00    +0.111 C 
BRANCH   8   9
ATOM      9  CG  ASN A   1      12.873  20.369  18.116  0.00  0.00    +0.221 C 
ATOM     10  ND2 ASN A   1      11.711  19.717  17.936  0.00  0.00    -0.329 N 
ATOM     11 HD21 ASN A   1      10.911  19.893  18.577  0.00  0.00    +0.145 HD
ATOM     12 HD22 ASN A   1      11.612  19.036  17.156  0.00  0.00    +0.145 HD
ATOM     13  OD1 ASN A   1      13.839  20.196  17.391  0.00  0.00    -0.275 OA
ENDBRANCH   8   9
ENDBRANCH   5   8
ENDBRANCH   1   5
BRANCH   3  14
ATOM     14  CA  GLU A   2      12.551  24.486  16.058  0.00  0.00    +0.137 C 
BRANCH  14  15
ATOM     15  C   GLU A   2      12.263  25.943  16.394  0.00  0.00    +0.227 C 
ATOM     16  O   GLU A   2      11.139  26.401  16.291  0.00  0.00    -0.286 OA
ENDBRANCH  14  15
BRANCH  14  17
ATOM     17  CB  GLU A   2      11.278  23.708  15.782  0.00  0.00    +0.039 C 
BRANCH  17  18
ATOM     18  CG  GLU A   2      11.563  22.337  15.227  0.00  0.00    +0.116 C 
BRANCH  18  19
ATOM     19  CD  GLU A   2      10.337  21.534  14.862  0.00  0.00    +0.365 C 
ATOM     20  OE2 GLU A   2       9.208  22.030  15.119  0.00  0.00    -0.246 OA
ATOM     21  OE1 GLU A   2      10.496  20.417  14.309  0.00  0.00    -0.246 OA
ENDBRANCH  18  19
ENDBRANCH  17  18
ENDBRANCH  14  17
ENDBRANCH   3  14
TORSDOF 9
REMARK  Name = ../refined-set-2016/1od8/1od8_pocket.pdb
REMARK  135 active torsions:
REMARK  status: ('A' for Active; 'I' for Inactive)
REMARK    1  A    between atoms: _1  and  _3
REMARK    2  A    between atoms: _3  and  _4
REMARK    3  A    between atoms: _7  and  _9
REMARK    4  A    between atoms: _9  and  _10
REMARK    5  A    between atoms: _13  and  _15
REMARK    6  A    between atoms: _15  and  _16
REMARK    7  A    between atoms: _15  and  _18
REMARK    8  A    between atoms: _18  and  _19
REMARK    9  A    between atoms: _19  and  _20
REMARK   10  A    between atoms: _20  and  _21
REMARK   11  A    between atoms: _30  and  _32
REMARK   12  A    between atoms: _32  and  _33
REMARK   13  A    between atoms: _32  and  _35
REMARK   14  A    between atoms: _35  and  _36
REMARK   15  A    between atoms: _39  and  _41
REMARK   16  A    between atoms: _41  and  _42
REMARK   17  A    between atoms: _45  and  _47
REMARK   18  A    between atoms: _47  and  _48
REMARK   19  A    between atoms: _47  and  _50
REMARK   20  A    between atoms: _50  and  _51
REMARK   21  A    between atoms: _51  and  _52
REMARK   22  A    between atoms: _55  and  _57
REMARK   23  A    between atoms: _57  and  _58
REMARK   24  A    between atoms: _57  and  _60
REMARK   25  A    between atoms: _60  and  _61
REMARK   26  A    between atoms: _66  and  _68
REMARK   27  A    between atoms: _68  and  _69
REMARK   28  A    between atoms: _68  and  _71
REMARK   29  A    between atoms: _71  and  _72
REMARK   30  A    between atoms: _72  and  _73
REMARK   31  A    between atoms: _73  and  _74
REMARK   32  A    between atoms: _74  and  _75
REMARK   33  A    between atoms: _79  and  _81
REMARK   34  A    between atoms: _81  and  _82
REMARK   35  A    between atoms: _81  and  _84
REMARK   36  A    between atoms: _84  and  _85
REMARK   37  A    between atoms: _85  and  _86
REMARK   38  A    between atoms: _86  and  _87
REMARK   39  A    between atoms: _96  and  _98
REMARK   40  A    between atoms: _98  and  _99
REMARK   41  A    between atoms: _98  and  _101
REMARK   42  A    between atoms: _101  and  _102
REMARK   43  A    between atoms: _107  and  _109
REMARK   44  A    between atoms: _109  and  _110
REMARK   45  A    between atoms: _109  and  _112
REMARK   46  A    between atoms: _112  and  _113
REMARK   47  A    between atoms: _116  and  _118
REMARK   48  A    between atoms: _118  and  _119
REMARK   49  A    between atoms: _118  and  _121
REMARK   50  A    between atoms: _121  and  _122
REMARK   51  A    between atoms: _132  and  _134
REMARK   52  A    between atoms: _134  and  _135
REMARK   53  A    between atoms: _134  and  _137
REMARK   54  A    between atoms: _137  and  _138
REMARK   55  A    between atoms: _143  and  _145
REMARK   56  A    between atoms: _145  and  _146
REMARK   57  A    between atoms: _145  and  _148
REMARK   58  A    between atoms: _148  and  _149
REMARK   59  A    between atoms: _151  and  _153
REMARK   60  A    between atoms: _153  and  _154
REMARK   61  A    between atoms: _153  and  _156
REMARK   62  A    between atoms: _156  and  _157
REMARK   63  A    between atoms: _157  and  _158
REMARK   64  A    between atoms: _163  and  _165
REMARK   65  A    between atoms: _165  and  _166
REMARK   66  A    between atoms: _165  and  _168
REMARK   67  A    between atoms: _168  and  _169
REMARK   68  A    between atoms: _172  and  _174
REMARK   69  A    between atoms: _174  and  _175
REMARK   70  A    between atoms: _174  and  _177
REMARK   71  A    between atoms: _177  and  _178
REMARK   72  A    between atoms: _183  and  _185
REMARK   73  A    between atoms: _185  and  _186
REMARK   74  A    between atoms: _185  and  _188
REMARK   75  A    between atoms: _188  and  _189
REMARK   76  A    between atoms: _189  and  _190
REMARK   77  A    between atoms: _193  and  _195
REMARK   78  A    between atoms: _195  and  _196
REMARK   79  A    between atoms: _195  and  _198
REMARK   80  A    between atoms: _198  and  _199
REMARK   81  A    between atoms: _204  and  _206
REMARK   82  A    between atoms: _206  and  _207
REMARK   83  A    between atoms: _206  and  _209
REMARK   84  A    between atoms: _209  and  _210
REMARK   85  A    between atoms: _213  and  _215
REMARK   86  A    between atoms: _215  and  _216
REMARK   87  A    between atoms: _215  and  _218
REMARK   88  A    between atoms: _218  and  _219
REMARK   89  A    between atoms: _224  and  _225
REMARK   90  A    between atoms: _227  and  _229
REMARK   91  A    between atoms: _229  and  _230
REMARK   92  A    between atoms: _229  and  _232
REMARK   93  A    between atoms: _232  and  _233
REMARK   94  A    between atoms: _233  and  _234
REMARK   95  A    between atoms: _239  and  _241
REMARK   96  A    between atoms: _241  and  _242
REMARK   97  A    between atoms: _241  and  _244
REMARK   98  A    between atoms: _244  and  _245
REMARK   99  A    between atoms: _250  and  _252
REMARK  100  A    between atoms: _252  and  _253
REMARK  101  A    between atoms: _252  and  _255
REMARK  102  A    between atoms: _255  and  _256
REMARK  103  A    between atoms: _259  and  _261
REMARK  104  A    between atoms: _261  and  _262
REMARK  105  A    between atoms: _261  and  _264
REMARK  106  A    between atoms: _264  and  _265
REMARK  107  A    between atoms: _265  and  _266
REMARK  108  A    between atoms: _269  and  _271
REMARK  109  A    between atoms: _271  and  _272
REMARK  110  A    between atoms: _271  and  _274
REMARK  111  A    between atoms: _274  and  _275
REMARK  112  A    between atoms: _278  and  _280
REMARK  113  A    between atoms: _280  and  _281
REMARK  114  A    between atoms: _280  and  _283
REMARK  115  A    between atoms: _283  and  _284
REMARK  116  A    between atoms: _294  and  _296
REMARK  117  A    between atoms: _296  and  _297
REMARK  118  A    between atoms: _299  and  _301
REMARK  119  A    between atoms: _301  and  _302
REMARK  120  A    between atoms: _301  and  _304
REMARK  121  A    between atoms: _304  and  _305
REMARK  122  A    between atoms: _308  and  _310
REMARK  123  A    between atoms: _310  and  _311
REMARK  124  A    between atoms: _310  and  _313
REMARK  125  A    between atoms: _313  and  _314
REMARK  126  A    between atoms: _316  and  _318
REMARK  127  A    between atoms: _318  and  _319
REMARK  128  A    between atoms: _318  and  _321
REMARK  129  A    between atoms: _321  and  _322
REMARK  130  A    between atoms: _332  and  _334
REMARK  131  A    between atoms: _334  and  _335
REMARK  132  A    between atoms: _334  and  _337
REMARK  133  A    between atoms: _337  and  _338
REMARK  134  A    between atoms: _338  and  _339
REMARK  135  A    between atoms: _339  and  _340
REMARK                            x       y       z     vdW  Elec       q    Type
REMARK                         _______ _______ _______ _____ _____    ______ ____
ROOT
ATOM      1  CA  ASP A   2      15.895  22.309  13.752  0.00  0.00    +0.160 C 
ENDROOT
BRANCH   1   4
ATOM      2  C   ASN A   1      16.817  21.815  15.929  0.00  0.00    +0.239 C 
ATOM      3  O   ASN A   1      15.952  22.529  16.467  0.00  0.00    -0.274 OA
ATOM      4  N   ASP A   2      16.880  21.654  14.614  0.00  0.00    -0.297 N 
ATOM      5  H   ASP A   2      17.628  21.064  14.196  0.00  0.00    +0.150 HD
BRANCH   2   6
ATOM      6  CA  ASN A   1      17.844  21.076  16.772  0.00  0.00    +0.154 C 
BRANCH   6   7
ATOM      7  N   ASN A   1      18.330  21.937  17.844  0.00  0.00    -0.238 NA
ATOM      8  H   ASN A   1      17.641  22.348  18.506  0.00  0.00    +0.142 HD
ENDBRANCH   6   7
BRANCH   6   9
ATOM      9  CB  ASN A   1      17.187  19.864  17.434  0.00  0.00    +0.111 C 
BRANCH   9  10
ATOM     10  CG  ASN A   1      16.918  18.705  16.512  0.00  0.00    +0.221 C 
ATOM     11  ND2 ASN A   1      15.684  18.219  16.504  0.00  0.00    -0.329 N 
ATOM     12 HD21 ASN A   1      14.950  18.654  17.099  0.00  0.00    +0.145 HD
ATOM     13 HD22 ASN A   1      15.450  17.403  15.903  0.00  0.00    +0.145 HD
ATOM     14  OD1 ASN A   1      17.826  18.215  15.816  0.00  0.00    -0.275 OA
ENDBRANCH   9  10
ENDBRANCH   6   9
ENDBRANCH   2   6
ENDBRANCH   1   4
BRANCH   1  15
ATOM     15  C   ASP A   2      15.844  21.597  12.407  0.00  0.00    +0.241 C 
ATOM     16  O   ASP A   2      16.666  20.720  12.124  0.00  0.00    -0.273 OA
ATOM     17  N   TYR A   3      14.858  21.986  11.610  0.00  0.00    -0.298 N 
ATOM     18  H   TYR A   3      14.194  22.704  11.965  0.00  0.00    +0.150 HD
BRANCH  17  19
ATOM     19  CA  TYR A   3      14.653  21.466  10.269  0.00  0.00    +0.141 C 
BRANCH  19  20
ATOM     20  C   TYR A   3      14.741  22.615   9.285  0.00  0.00    +0.227 C 
ATOM     21  O   TYR A   3      14.660  23.804   9.645  0.00  0.00    -0.286 OA
ENDBRANCH  19  20
BRANCH  19  22
ATOM     22  CB  TYR A   3      13.301  20.763  10.120  0.00  0.00    +0.054 C 
BRANCH  22  23
ATOM     23  CG  TYR A   3      12.117  21.697  10.188  0.00  0.00    -0.020 A 
ATOM     24  CD2 TYR A   3      11.556  22.074  11.394  0.00  0.00    -0.001 A 
ATOM     25  CE2 TYR A   3      10.468  22.931  11.438  0.00  0.00    +0.036 A 
ATOM     26  CZ  TYR A   3       9.939  23.428  10.283  0.00  0.00    +0.134 A 
ATOM     27  CE1 TYR A   3      10.473  23.070   9.071  0.00  0.00    +0.036 A 
ATOM     28  CD1 TYR A   3      11.555  22.214   9.029  0.00  0.00    -0.001 A 
BRANCH  26  29
ATOM     29  OH  TYR A   3       8.860  24.278  10.350  0.00  0.00    -0.506 OA
ATOM     30  HH  TYR A   3       9.097  25.144   9.934  0.00  0.00    +0.292 HD
ENDBRANCH  26  29
ENDBRANCH  22  23
ENDBRANCH  19  22
ENDBRANCH  17  19
ENDBRANCH   1  15
BRANCH   1  31
ATOM     31  CB  ASP A   2      16.230  23.817  13.643  0.00  0.00    +0.143 C 
BRANCH  31  32
ATOM     32  CG  ASP A   2      15.020  24.719  13.492  0.00  0.00    +0.367 C 
ATOM     33  OD2 ASP A   2      15.115  25.920  13.901  0.00  0.00    -0.246 OA
ATOM     34  OD1 ASP A   2      13.973  24.258  12.984  0.00  0.00    -0.246 OA
ENDBRANCH  31  32
ENDBRANCH   1  31
TORSDOF 13
REMARK  Name = ../refined-set-2016/1od8/1od8_pocket.pdb
REMARK  135 active torsions:
REMARK  status: ('A' for Active; 'I' for Inactive)
REMARK    1  A    between atoms: _1  and  _3
REMARK    2  A    between atoms: _3  and  _4
REMARK    3  A    between atoms: _7  and  _9
REMARK    4  A    between atoms: _9  and  _10
REMARK    5  A    between atoms: _13  and  _15
REMARK    6  A    between atoms: _15  and  _16
REMARK    7  A    between atoms: _15  and  _18
REMARK    8  A    between atoms: _18  and  _19
REMARK    9  A    between atoms: _19  and  _20
REMARK   10  A    between atoms: _20  and  _21
REMARK   11  A    between atoms: _30  and  _32
REMARK   12  A    between atoms: _32  and  _33
REMARK   13  A    between atoms: _32  and  _35
REMARK   14  A    between atoms: _35  and  _36
REMARK   15  A    between atoms: _39  and  _41
REMARK   16  A    between atoms: _41  and  _42
REMARK   17  A    between atoms: _45  and  _47
REMARK   18  A    between atoms: _47  and  _48
REMARK   19  A    between atoms: _47  and  _50
REMARK   20  A    between atoms: _50  and  _51
REMARK   21  A    between atoms: _51  and  _52
REMARK   22  A    between atoms: _55  and  _57
REMARK   23  A    between atoms: _57  and  _58
REMARK   24  A    between atoms: _57  and  _60
REMARK   25  A    between atoms: _60  and  _61
REMARK   26  A    between atoms: _66  and  _68
REMARK   27  A    between atoms: _68  and  _69
REMARK   28  A    between atoms: _68  and  _71
REMARK   29  A    between atoms: _71  and  _72
REMARK   30  A    between atoms: _72  and  _73
REMARK   31  A    between atoms: _73  and  _74
REMARK   32  A    between atoms: _74  and  _75
REMARK   33  A    between atoms: _79  and  _81
REMARK   34  A    between atoms: _81  and  _82
REMARK   35  A    between atoms: _81  and  _84
REMARK   36  A    between atoms: _84  and  _85
REMARK   37  A    between atoms: _85  and  _86
REMARK   38  A    between atoms: _86  and  _87
REMARK   39  A    between atoms: _96  and  _98
REMARK   40  A    between atoms: _98  and  _99
REMARK   41  A    between atoms: _98  and  _101
REMARK   42  A    between atoms: _101  and  _102
REMARK   43  A    between atoms: _107  and  _109
REMARK   44  A    between atoms: _109  and  _110
REMARK   45  A    between atoms: _109  and  _112
REMARK   46  A    between atoms: _112  and  _113
REMARK   47  A    between atoms: _116  and  _118
REMARK   48  A    between atoms: _118  and  _119
REMARK   49  A    between atoms: _118  and  _121
REMARK   50  A    between atoms: _121  and  _122
REMARK   51  A    between atoms: _132  and  _134
REMARK   52  A    between atoms: _134  and  _135
REMARK   53  A    between atoms: _134  and  _137
REMARK   54  A    between atoms: _137  and  _138
REMARK   55  A    between atoms: _143  and  _145
REMARK   56  A    between atoms: _145  and  _146
REMARK   57  A    between atoms: _145  and  _148
REMARK   58  A    between atoms: _148  and  _149
REMARK   59  A    between atoms: _151  and  _153
REMARK   60  A    between atoms: _153  and  _154
REMARK   61  A    between atoms: _153  and  _156
REMARK   62  A    between atoms: _156  and  _157
REMARK   63  A    between atoms: _157  and  _158
REMARK   64  A    between atoms: _163  and  _165
REMARK   65  A    between atoms: _165  and  _166
REMARK   66  A    between atoms: _165  and  _168
REMARK   67  A    between atoms: _168  and  _169
REMARK   68  A    between atoms: _172  and  _174
REMARK   69  A    between atoms: _174  and  _175
REMARK   70  A    between atoms: _174  and  _177
REMARK   71  A    between atoms: _177  and  _178
REMARK   72  A    between atoms: _183  and  _185
REMARK   73  A    between atoms: _185  and  _186
REMARK   74  A    between atoms: _185  and  _188
REMARK   75  A    between atoms: _188  and  _189
REMARK   76  A    between atoms: _189  and  _190
REMARK   77  A    between atoms: _193  and  _195
REMARK   78  A    between atoms: _195  and  _196
REMARK   79  A    between atoms: _195  and  _198
REMARK   80  A    between atoms: _198  and  _199
REMARK   81  A    between atoms: _204  and  _206
REMARK   82  A    between atoms: _206  and  _207
REMARK   83  A    between atoms: _206  and  _209
REMARK   84  A    between atoms: _209  and  _210
REMARK   85  A    between atoms: _213  and  _215
REMARK   86  A    between atoms: _215  and  _216
REMARK   87  A    between atoms: _215  and  _218
REMARK   88  A    between atoms: _218  and  _219
REMARK   89  A    between atoms: _224  and  _225
REMARK   90  A    between atoms: _227  and  _229
REMARK   91  A    between atoms: _229  and  _230
REMARK   92  A    between atoms: _229  and  _232
REMARK   93  A    between atoms: _232  and  _233
REMARK   94  A    between atoms: _233  and  _234
REMARK   95  A    between atoms: _239  and  _241
REMARK   96  A    between atoms: _241  and  _242
REMARK   97  A    between atoms: _241  and  _244
REMARK   98  A    between atoms: _244  and  _245
REMARK   99  A    between atoms: _250  and  _252
REMARK  100  A    between atoms: _252  and  _253
REMARK  101  A    between atoms: _252  and  _255
REMARK  102  A    between atoms: _255  and  _256
REMARK  103  A    between atoms: _259  and  _261
REMARK  104  A    between atoms: _261  and  _262
REMARK  105  A    between atoms: _261  and  _264
REMARK  106  A    between atoms: _264  and  _265
REMARK  107  A    between atoms: _265  and  _266
REMARK  108  A    between atoms: _269  and  _271
REMARK  109  A    between atoms: _271  and  _272
REMARK  110  A    between atoms: _271  and  _274
REMARK  111  A    between atoms: _274  and  _275
REMARK  112  A    between atoms: _278  and  _280
REMARK  113  A    between atoms: _280  and  _281
REMARK  114  A    between atoms: _280  and  _283
REMARK  115  A    between atoms: _283  and  _284
REMARK  116  A    between atoms: _294  and  _296
REMARK  117  A    between atoms: _296  and  _297
REMARK  118  A    between atoms: _299  and  _301
REMARK  119  A    between atoms: _301  and  _302
REMARK  120  A    between atoms: _301  and  _304
REMARK  121  A    between atoms: _304  and  _305
REMARK  122  A    between atoms: _308  and  _310
REMARK  123  A    between atoms: _310  and  _311
REMARK  124  A    between atoms: _310  and  _313
REMARK  125  A    between atoms: _313  and  _314
REMARK  126  A    between atoms: _316  and  _318
REMARK  127  A    between atoms: _318  and  _319
REMARK  128  A    between atoms: _318  and  _321
REMARK  129  A    between atoms: _321  and  _322
REMARK  130  A    between atoms: _332  and  _334
REMARK  131  A    between atoms: _334  and  _335
REMARK  132  A    between atoms: _334  and  _337
REMARK  133  A    between atoms: _337  and  _338
REMARK  134  A    between atoms: _338  and  _339
REMARK  135  A    between atoms: _339  and  _340
REMARK                            x       y       z     vdW  Elec       q    Type
REMARK                         _______ _______ _______ _____ _____    ______ ____
ROOT
ATOM      1  CB  GLN A   1      15.160  17.710  11.670  0.00  0.00    +0.035 C 
ENDROOT
BRANCH   1   2
ATOM      2  CA  GLN A   1      16.546  17.095  11.475  0.00  0.00    +0.134 C 
BRANCH   2   3
ATOM      3  N   GLN A   1      17.597  18.097  11.531  0.00  0.00    -0.239 NA
ATOM      4  H   GLN A   1      17.355  19.100  11.660  0.00  0.00    +0.142 HD
ENDBRANCH   2   3
BRANCH   2   5
ATOM      5  C   GLN A   1      16.584  16.309  10.185  0.00  0.00    +0.224 C 
ATOM      6  O   GLN A   1      16.345  15.105  10.187  0.00  0.00    -0.287 OA
ENDBRANCH   2   5
ENDBRANCH   1   2
BRANCH   1   7
ATOM      7  CG  GLN A   1      14.892  18.128  13.095  0.00  0.00    +0.087 C 
BRANCH   7   8
ATOM      8  CD  GLN A   1      13.486  18.666  13.279  0.00  0.00    +0.219 C 
ATOM      9  NE2 GLN A   1      13.278  19.511  14.275  0.00  0.00    -0.329 N 
ATOM     10 HE21 GLN A   1      14.066  19.788  14.895  0.00  0.00    +0.145 HD
ATOM     11 HE22 GLN A   1      12.327  19.899  14.438  0.00  0.00    +0.145 HD
ATOM     12  OE1 GLN A   1      12.578  18.309  12.516  0.00  0.00    -0.275 OA
ENDBRANCH   7   8
ENDBRANCH   1   7
TORSDOF 5
REMARK  Name = ../refined-set-2016/1od8/1od8_pocket.pdb
REMARK  135 active torsions:
REMARK  status: ('A' for Active; 'I' for Inactive)
REMARK    1  A    between atoms: _1  and  _3
REMARK    2  A    between atoms: _3  and  _4
REMARK    3  A    between atoms: _7  and  _9
REMARK    4  A    between atoms: _9  and  _10
REMARK    5  A    between atoms: _13  and  _15
REMARK    6  A    between atoms: _15  and  _16
REMARK    7  A    between atoms: _15  and  _18
REMARK    8  A    between atoms: _18  and  _19
REMARK    9  A    between atoms: _19  and  _20
REMARK   10  A    between atoms: _20  and  _21
REMARK   11  A    between atoms: _30  and  _32
REMARK   12  A    between atoms: _32  and  _33
REMARK   13  A    between atoms: _32  and  _35
REMARK   14  A    between atoms: _35  and  _36
REMARK   15  A    between atoms: _39  and  _41
REMARK   16  A    between atoms: _41  and  _42
REMARK   17  A    between atoms: _45  and  _47
REMARK   18  A    between atoms: _47  and  _48
REMARK   19  A    between atoms: _47  and  _50
REMARK   20  A    between atoms: _50  and  _51
REMARK   21  A    between atoms: _51  and  _52
REMARK   22  A    between atoms: _55  and  _57
REMARK   23  A    between atoms: _57  and  _58
REMARK   24  A    between atoms: _57  and  _60
REMARK   25  A    between atoms: _60  and  _61
REMARK   26  A    between atoms: _66  and  _68
REMARK   27  A    between atoms: _68  and  _69
REMARK   28  A    between atoms: _68  and  _71
REMARK   29  A    between atoms: _71  and  _72
REMARK   30  A    between atoms: _72  and  _73
REMARK   31  A    between atoms: _73  and  _74
REMARK   32  A    between atoms: _74  and  _75
REMARK   33  A    between atoms: _79  and  _81
REMARK   34  A    between atoms: _81  and  _82
REMARK   35  A    between atoms: _81  and  _84
REMARK   36  A    between atoms: _84  and  _85
REMARK   37  A    between atoms: _85  and  _86
REMARK   38  A    between atoms: _86  and  _87
REMARK   39  A    between atoms: _96  and  _98
REMARK   40  A    between atoms: _98  and  _99
REMARK   41  A    between atoms: _98  and  _101
REMARK   42  A    between atoms: _101  and  _102
REMARK   43  A    between atoms: _107  and  _109
REMARK   44  A    between atoms: _109  and  _110
REMARK   45  A    between atoms: _109  and  _112
REMARK   46  A    between atoms: _112  and  _113
REMARK   47  A    between atoms: _116  and  _118
REMARK   48  A    between atoms: _118  and  _119
REMARK   49  A    between atoms: _118  and  _121
REMARK   50  A    between atoms: _121  and  _122
REMARK   51  A    between atoms: _132  and  _134
REMARK   52  A    between atoms: _134  and  _135
REMARK   53  A    between atoms: _134  and  _137
REMARK   54  A    between atoms: _137  and  _138
REMARK   55  A    between atoms: _143  and  _145
REMARK   56  A    between atoms: _145  and  _146
REMARK   57  A    between atoms: _145  and  _148
REMARK   58  A    between atoms: _148  and  _149
REMARK   59  A    between atoms: _151  and  _153
REMARK   60  A    between atoms: _153  and  _154
REMARK   61  A    between atoms: _153  and  _156
REMARK   62  A    between atoms: _156  and  _157
REMARK   63  A    between atoms: _157  and  _158
REMARK   64  A    between atoms: _163  and  _165
REMARK   65  A    between atoms: _165  and  _166
REMARK   66  A    between atoms: _165  and  _168
REMARK   67  A    between atoms: _168  and  _169
REMARK   68  A    between atoms: _172  and  _174
REMARK   69  A    between atoms: _174  and  _175
REMARK   70  A    between atoms: _174  and  _177
REMARK   71  A    between atoms: _177  and  _178
REMARK   72  A    between atoms: _183  and  _185
REMARK   73  A    between atoms: _185  and  _186
REMARK   74  A    between atoms: _185  and  _188
REMARK   75  A    between atoms: _188  and  _189
REMARK   76  A    between atoms: _189  and  _190
REMARK   77  A    between atoms: _193  and  _195
REMARK   78  A    between atoms: _195  and  _196
REMARK   79  A    between atoms: _195  and  _198
REMARK   80  A    between atoms: _198  and  _199
REMARK   81  A    between atoms: _204  and  _206
REMARK   82  A    between atoms: _206  and  _207
REMARK   83  A    between atoms: _206  and  _209
REMARK   84  A    between atoms: _209  and  _210
REMARK   85  A    between atoms: _213  and  _215
REMARK   86  A    between atoms: _215  and  _216
REMARK   87  A    between atoms: _215  and  _218
REMARK   88  A    between atoms: _218  and  _219
REMARK   89  A    between atoms: _224  and  _225
REMARK   90  A    between atoms: _227  and  _229
REMARK   91  A    between atoms: _229  and  _230
REMARK   92  A    between atoms: _229  and  _232
REMARK   93  A    between atoms: _232  and  _233
REMARK   94  A    between atoms: _233  and  _234
REMARK   95  A    between atoms: _239  and  _241
REMARK   96  A    between atoms: _241  and  _242
REMARK   97  A    between atoms: _241  and  _244
REMARK   98  A    between atoms: _244  and  _245
REMARK   99  A    between atoms: _250  and  _252
REMARK  100  A    between atoms: _252  and  _253
REMARK  101  A    between atoms: _252  and  _255
REMARK  102  A    between atoms: _255  and  _256
REMARK  103  A    between atoms: _259  and  _261
REMARK  104  A    between atoms: _261  and  _262
REMARK  105  A    between atoms: _261  and  _264
REMARK  106  A    between atoms: _264  and  _265
REMARK  107  A    between atoms: _265  and  _266
REMARK  108  A    between atoms: _269  and  _271
REMARK  109  A    between atoms: _271  and  _272
REMARK  110  A    between atoms: _271  and  _274
REMARK  111  A    between atoms: _274  and  _275
REMARK  112  A    between atoms: _278  and  _280
REMARK  113  A    between atoms: _280  and  _281
REMARK  114  A    between atoms: _280  and  _283
REMARK  115  A    between atoms: _283  and  _284
REMARK  116  A    between atoms: _294  and  _296
REMARK  117  A    between atoms: _296  and  _297
REMARK  118  A    between atoms: _299  and  _301
REMARK  119  A    between atoms: _301  and  _302
REMARK  120  A    between atoms: _301  and  _304
REMARK  121  A    between atoms: _304  and  _305
REMARK  122  A    between atoms: _308  and  _310
REMARK  123  A    between atoms: _310  and  _311
REMARK  124  A    between atoms: _310  and  _313
REMARK  125  A    between atoms: _313  and  _314
REMARK  126  A    between atoms: _316  and  _318
REMARK  127  A    between atoms: _318  and  _319
REMARK  128  A    between atoms: _318  and  _321
REMARK  129  A    between atoms: _321  and  _322
REMARK  130  A    between atoms: _332  and  _334
REMARK  131  A    between atoms: _334  and  _335
REMARK  132  A    between atoms: _334  and  _337
REMARK  133  A    between atoms: _337  and  _338
REMARK  134  A    between atoms: _338  and  _339
REMARK  135  A    between atoms: _339  and  _340
REMARK                            x       y       z     vdW  Elec       q    Type
REMARK                         _______ _______ _______ _____ _____    ______ ____
ROOT
ATOM      1  CB  HIS A   1      12.190  16.452   7.489  0.00  0.00    +0.072 C 
ENDROOT
BRANCH   1   2
ATOM      2  CG  HIS A   1      12.058  15.938   8.871  0.00  0.00    +0.082 A 
ATOM      3  CD2 HIS A   1      12.114  16.559  10.068  0.00  0.00    +0.115 A 
ATOM      4  NE2 HIS A   1      11.935  15.611  11.030  0.00  0.00    -0.221 NA
ATOM      5  CE1 HIS A   1      11.792  14.442  10.447  0.00  0.00    +0.199 A 
ATOM      6  ND1 HIS A   1      11.850  14.599   9.137  0.00  0.00    -0.227 NA
ENDBRANCH   1   2
BRANCH   1   7
ATOM      7  CA  HIS A   1      13.415  15.899   6.755  0.00  0.00    +0.139 C 
BRANCH   7   8
ATOM      8  N   HIS A   1      14.652  16.341   7.392  0.00  0.00    -0.239 NA
ATOM      9  H   HIS A   1      14.664  17.237   7.920  0.00  0.00    +0.142 HD
ENDBRANCH   7   8
BRANCH   7  10
ATOM     10  C   HIS A   1      13.405  16.348   5.295  0.00  0.00    +0.224 C 
ATOM     11  O   HIS A   1      12.849  17.389   4.959  0.00  0.00    -0.287 OA
ENDBRANCH   7  10
ENDBRANCH   1   7
TORSDOF 4
REMARK  Name = ../refined-set-2016/1od8/1od8_pocket.pdb
REMARK  135 active torsions:
REMARK  status: ('A' for Active; 'I' for Inactive)
REMARK    1  A    between atoms: _1  and  _3
REMARK    2  A    between atoms: _3  and  _4
REMARK    3  A    between atoms: _7  and  _9
REMARK    4  A    between atoms: _9  and  _10
REMARK    5  A    between atoms: _13  and  _15
REMARK    6  A    between atoms: _15  and  _16
REMARK    7  A    between atoms: _15  and  _18
REMARK    8  A    between atoms: _18  and  _19
REMARK    9  A    between atoms: _19  and  _20
REMARK   10  A    between atoms: _20  and  _21
REMARK   11  A    between atoms: _30  and  _32
REMARK   12  A    between atoms: _32  and  _33
REMARK   13  A    between atoms: _32  and  _35
REMARK   14  A    between atoms: _35  and  _36
REMARK   15  A    between atoms: _39  and  _41
REMARK   16  A    between atoms: _41  and  _42
REMARK   17  A    between atoms: _45  and  _47
REMARK   18  A    between atoms: _47  and  _48
REMARK   19  A    between atoms: _47  and  _50
REMARK   20  A    between atoms: _50  and  _51
REMARK   21  A    between atoms: _51  and  _52
REMARK   22  A    between atoms: _55  and  _57
REMARK   23  A    between atoms: _57  and  _58
REMARK   24  A    between atoms: _57  and  _60
REMARK   25  A    between atoms: _60  and  _61
REMARK   26  A    between atoms: _66  and  _68
REMARK   27  A    between atoms: _68  and  _69
REMARK   28  A    between atoms: _68  and  _71
REMARK   29  A    between atoms: _71  and  _72
REMARK   30  A    between atoms: _72  and  _73
REMARK   31  A    between atoms: _73  and  _74
REMARK   32  A    between atoms: _74  and  _75
REMARK   33  A    between atoms: _79  and  _81
REMARK   34  A    between atoms: _81  and  _82
REMARK   35  A    between atoms: _81  and  _84
REMARK   36  A    between atoms: _84  and  _85
REMARK   37  A    between atoms: _85  and  _86
REMARK   38  A    between atoms: _86  and  _87
REMARK   39  A    between atoms: _96  and  _98
REMARK   40  A    between atoms: _98  and  _99
REMARK   41  A    between atoms: _98  and  _101
REMARK   42  A    between atoms: _101  and  _102
REMARK   43  A    between atoms: _107  and  _109
REMARK   44  A    between atoms: _109  and  _110
REMARK   45  A    between atoms: _109  and  _112
REMARK   46  A    between atoms: _112  and  _113
REMARK   47  A    between atoms: _116  and  _118
REMARK   48  A    between atoms: _118  and  _119
REMARK   49  A    between atoms: _118  and  _121
REMARK   50  A    between atoms: _121  and  _122
REMARK   51  A    between atoms: _132  and  _134
REMARK   52  A    between atoms: _134  and  _135
REMARK   53  A    between atoms: _134  and  _137
REMARK   54  A    between atoms: _137  and  _138
REMARK   55  A    between atoms: _143  and  _145
REMARK   56  A    between atoms: _145  and  _146
REMARK   57  A    between atoms: _145  and  _148
REMARK   58  A    between atoms: _148  and  _149
REMARK   59  A    between atoms: _151  and  _153
REMARK   60  A    between atoms: _153  and  _154
REMARK   61  A    between atoms: _153  and  _156
REMARK   62  A    between atoms: _156  and  _157
REMARK   63  A    between atoms: _157  and  _158
REMARK   64  A    between atoms: _163  and  _165
REMARK   65  A    between atoms: _165  and  _166
REMARK   66  A    between atoms: _165  and  _168
REMARK   67  A    between atoms: _168  and  _169
REMARK   68  A    between atoms: _172  and  _174
REMARK   69  A    between atoms: _174  and  _175
REMARK   70  A    between atoms: _174  and  _177
REMARK   71  A    between atoms: _177  and  _178
REMARK   72  A    between atoms: _183  and  _185
REMARK   73  A    between atoms: _185  and  _186
REMARK   74  A    between atoms: _185  and  _188
REMARK   75  A    between atoms: _188  and  _189
REMARK   76  A    between atoms: _189  and  _190
REMARK   77  A    between atoms: _193  and  _195
REMARK   78  A    between atoms: _195  and  _196
REMARK   79  A    between atoms: _195  and  _198
REMARK   80  A    between atoms: _198  and  _199
REMARK   81  A    between atoms: _204  and  _206
REMARK   82  A    between atoms: _206  and  _207
REMARK   83  A    between atoms: _206  and  _209
REMARK   84  A    between atoms: _209  and  _210
REMARK   85  A    between atoms: _213  and  _215
REMARK   86  A    between atoms: _215  and  _216
REMARK   87  A    between atoms: _215  and  _218
REMARK   88  A    between atoms: _218  and  _219
REMARK   89  A    between atoms: _224  and  _225
REMARK   90  A    between atoms: _227  and  _229
REMARK   91  A    between atoms: _229  and  _230
REMARK   92  A    between atoms: _229  and  _232
REMARK   93  A    between atoms: _232  and  _233
REMARK   94  A    between atoms: _233  and  _234
REMARK   95  A    between atoms: _239  and  _241
REMARK   96  A    between atoms: _241  and  _242
REMARK   97  A    between atoms: _241  and  _244
REMARK   98  A    between atoms: _244  and  _245
REMARK   99  A    between atoms: _250  and  _252
REMARK  100  A    between atoms: _252  and  _253
REMARK  101  A    between atoms: _252  and  _255
REMARK  102  A    between atoms: _255  and  _256
REMARK  103  A    between atoms: _259  and  _261
REMARK  104  A    between atoms: _261  and  _262
REMARK  105  A    between atoms: _261  and  _264
REMARK  106  A    between atoms: _264  and  _265
REMARK  107  A    between atoms: _265  and  _266
REMARK  108  A    between atoms: _269  and  _271
REMARK  109  A    between atoms: _271  and  _272
REMARK  110  A    between atoms: _271  and  _274
REMARK  111  A    between atoms: _274  and  _275
REMARK  112  A    between atoms: _278  and  _280
REMARK  113  A    between atoms: _280  and  _281
REMARK  114  A    between atoms: _280  and  _283
REMARK  115  A    between atoms: _283  and  _284
REMARK  116  A    between atoms: _294  and  _296
REMARK  117  A    between atoms: _296  and  _297
REMARK  118  A    between atoms: _299  and  _301
REMARK  119  A    between atoms: _301  and  _302
REMARK  120  A    between atoms: _301  and  _304
REMARK  121  A    between atoms: _304  and  _305
REMARK  122  A    between atoms: _308  and  _310
REMARK  123  A    between atoms: _310  and  _311
REMARK  124  A    between atoms: _310  and  _313
REMARK  125  A    between atoms: _313  and  _314
REMARK  126  A    between atoms: _316  and  _318
REMARK  127  A    between atoms: _318  and  _319
REMARK  128  A    between atoms: _318  and  _321
REMARK  129  A    between atoms: _321  and  _322
REMARK  130  A    between atoms: _332  and  _334
REMARK  131  A    between atoms: _334  and  _335
REMARK  132  A    between atoms: _334  and  _337
REMARK  133  A    between atoms: _337  and  _338
REMARK  134  A    between atoms: _338  and  _339
REMARK  135  A    between atoms: _339  and  _340
REMARK                            x       y       z     vdW  Elec       q    Type
REMARK                         _______ _______ _______ _____ _____    ______ ____
ROOT
ATOM      1  C   THR A   1      17.407  13.121  13.744  0.00  0.00    +0.241 C 
ATOM      2  O   THR A   1      16.907  12.370  14.570  0.00  0.00    -0.274 OA
ATOM      3  N   GLU A   2      16.825  13.382  12.579  0.00  0.00    -0.298 N 
ATOM      4  H   GLU A   2      17.336  13.938  11.864  0.00  0.00    +0.150 HD
ENDROOT
BRANCH   1   5
ATOM      5  CA  THR A   1      18.731  13.785  14.073  0.00  0.00    +0.172 C 
BRANCH   5   6
ATOM      6  N   THR A   1      19.544  14.216  12.951  0.00  0.00    -0.236 NA
ATOM      7  H   THR A   1      19.260  15.057  12.409  0.00  0.00    +0.142 HD
ENDBRANCH   5   6
BRANCH   5   8
ATOM      8  CB  THR A   1      18.493  14.939  15.032  0.00  0.00    +0.135 C 
ATOM      9  CG2 THR A   1      19.786  15.430  15.648  0.00  0.00    +0.034 C 
BRANCH   8  10
ATOM     10  OG1 THR A   1      17.846  15.972  14.298  0.00  0.00    -0.383 OA
ATOM     11  HG1 THR A   1      17.675  16.743  14.896  0.00  0.00    +0.210 HD
ENDBRANCH   8  10
ENDBRANCH   5   8
ENDBRANCH   1   5
BRANCH   3  12
ATOM     12  CA  GLU A   2      15.464  12.894  12.284  0.00  0.00    +0.137 C 
BRANCH  12  13
ATOM     13  C   GLU A   2      15.331  12.558  10.805  0.00  0.00    +0.227 C 
ATOM     14  O   GLU A   2      14.305  12.846  10.205  0.00  0.00    -0.286 OA
ENDBRANCH  12  13
BRANCH  12  15
ATOM     15  CB  GLU A   2      14.385  13.880  12.718  0.00  0.00    +0.039 C 
BRANCH  15  16
ATOM     16  CG  GLU A   2      14.520  14.394  14.124  0.00  0.00    +0.116 C 
BRANCH  16  17
ATOM     17  CD  GLU A   2      13.393  15.275  14.556  0.00  0.00    +0.365 C 
ATOM     18  OE2 GLU A   2      13.569  15.876  15.698  0.00  0.00    -0.246 OA
ATOM     19  OE1 GLU A   2      12.372  15.418  13.881  0.00  0.00    -0.246 OA
ENDBRANCH  16  17
ENDBRANCH  15  16
ENDBRANCH  12  15
ENDBRANCH   3  12
TORSDOF 9
REMARK  Name = ../refined-set-2016/1od8/1od8_pocket.pdb
REMARK  135 active torsions:
REMARK  status: ('A' for Active; 'I' for Inactive)
REMARK    1  A    between atoms: _1  and  _3
REMARK    2  A    between atoms: _3  and  _4
REMARK    3  A    between atoms: _7  and  _9
REMARK    4  A    between atoms: _9  and  _10
REMARK    5  A    between atoms: _13  and  _15
REMARK    6  A    between atoms: _15  and  _16
REMARK    7  A    between atoms: _15  and  _18
REMARK    8  A    between atoms: _18  and  _19
REMARK    9  A    between atoms: _19  and  _20
REMARK   10  A    between atoms: _20  and  _21
REMARK   11  A    between atoms: _30  and  _32
REMARK   12  A    between atoms: _32  and  _33
REMARK   13  A    between atoms: _32  and  _35
REMARK   14  A    between atoms: _35  and  _36
REMARK   15  A    between atoms: _39  and  _41
REMARK   16  A    between atoms: _41  and  _42
REMARK   17  A    between atoms: _45  and  _47
REMARK   18  A    between atoms: _47  and  _48
REMARK   19  A    between atoms: _47  and  _50
REMARK   20  A    between atoms: _50  and  _51
REMARK   21  A    between atoms: _51  and  _52
REMARK   22  A    between atoms: _55  and  _57
REMARK   23  A    between atoms: _57  and  _58
REMARK   24  A    between atoms: _57  and  _60
REMARK   25  A    between atoms: _60  and  _61
REMARK   26  A    between atoms: _66  and  _68
REMARK   27  A    between atoms: _68  and  _69
REMARK   28  A    between atoms: _68  and  _71
REMARK   29  A    between atoms: _71  and  _72
REMARK   30  A    between atoms: _72  and  _73
REMARK   31  A    between atoms: _73  and  _74
REMARK   32  A    between atoms: _74  and  _75
REMARK   33  A    between atoms: _79  and  _81
REMARK   34  A    between atoms: _81  and  _82
REMARK   35  A    between atoms: _81  and  _84
REMARK   36  A    between atoms: _84  and  _85
REMARK   37  A    between atoms: _85  and  _86
REMARK   38  A    between atoms: _86  and  _87
REMARK   39  A    between atoms: _96  and  _98
REMARK   40  A    between atoms: _98  and  _99
REMARK   41  A    between atoms: _98  and  _101
REMARK   42  A    between atoms: _101  and  _102
REMARK   43  A    between atoms: _107  and  _109
REMARK   44  A    between atoms: _109  and  _110
REMARK   45  A    between atoms: _109  and  _112
REMARK   46  A    between atoms: _112  and  _113
REMARK   47  A    between atoms: _116  and  _118
REMARK   48  A    between atoms: _118  and  _119
REMARK   49  A    between atoms: _118  and  _121
REMARK   50  A    between atoms: _121  and  _122
REMARK   51  A    between atoms: _132  and  _134
REMARK   52  A    between atoms: _134  and  _135
REMARK   53  A    between atoms: _134  and  _137
REMARK   54  A    between atoms: _137  and  _138
REMARK   55  A    between atoms: _143  and  _145
REMARK   56  A    between atoms: _145  and  _146
REMARK   57  A    between atoms: _145  and  _148
REMARK   58  A    between atoms: _148  and  _149
REMARK   59  A    between atoms: _151  and  _153
REMARK   60  A    between atoms: _153  and  _154
REMARK   61  A    between atoms: _153  and  _156
REMARK   62  A    between atoms: _156  and  _157
REMARK   63  A    between atoms: _157  and  _158
REMARK   64  A    between atoms: _163  and  _165
REMARK   65  A    between atoms: _165  and  _166
REMARK   66  A    between atoms: _165  and  _168
REMARK   67  A    between atoms: _168  and  _169
REMARK   68  A    between atoms: _172  and  _174
REMARK   69  A    between atoms: _174  and  _175
REMARK   70  A    between atoms: _174  and  _177
REMARK   71  A    between atoms: _177  and  _178
REMARK   72  A    between atoms: _183  and  _185
REMARK   73  A    between atoms: _185  and  _186
REMARK   74  A    between atoms: _185  and  _188
REMARK   75  A    between atoms: _188  and  _189
REMARK   76  A    between atoms: _189  and  _190
REMARK   77  A    between atoms: _193  and  _195
REMARK   78  A    between atoms: _195  and  _196
REMARK   79  A    between atoms: _195  and  _198
REMARK   80  A    between atoms: _198  and  _199
REMARK   81  A    between atoms: _204  and  _206
REMARK   82  A    between atoms: _206  and  _207
REMARK   83  A    between atoms: _206  and  _209
REMARK   84  A    between atoms: _209  and  _210
REMARK   85  A    between atoms: _213  and  _215
REMARK   86  A    between atoms: _215  and  _216
REMARK   87  A    between atoms: _215  and  _218
REMARK   88  A    between atoms: _218  and  _219
REMARK   89  A    between atoms: _224  and  _225
REMARK   90  A    between atoms: _227  and  _229
REMARK   91  A    between atoms: _229  and  _230
REMARK   92  A    between atoms: _229  and  _232
REMARK   93  A    between atoms: _232  and  _233
REMARK   94  A    between atoms: _233  and  _234
REMARK   95  A    between atoms: _239  and  _241
REMARK   96  A    between atoms: _241  and  _242
REMARK   97  A    between atoms: _241  and  _244
REMARK   98  A    between atoms: _244  and  _245
REMARK   99  A    between atoms: _250  and  _252
REMARK  100  A    between atoms: _252  and  _253
REMARK  101  A    between atoms: _252  and  _255
REMARK  102  A    between atoms: _255  and  _256
REMARK  103  A    between atoms: _259  and  _261
REMARK  104  A    between atoms: _261  and  _262
REMARK  105  A    between atoms: _261  and  _264
REMARK  106  A    between atoms: _264  and  _265
REMARK  107  A    between atoms: _265  and  _266
REMARK  108  A    between atoms: _269  and  _271
REMARK  109  A    between atoms: _271  and  _272
REMARK  110  A    between atoms: _271  and  _274
REMARK  111  A    between atoms: _274  and  _275
REMARK  112  A    between atoms: _278  and  _280
REMARK  113  A    between atoms: _280  and  _281
REMARK  114  A    between atoms: _280  and  _283
REMARK  115  A    between atoms: _283  and  _284
REMARK  116  A    between atoms: _294  and  _296
REMARK  117  A    between atoms: _296  and  _297
REMARK  118  A    between atoms: _299  and  _301
REMARK  119  A    between atoms: _301  and  _302
REMARK  120  A    between atoms: _301  and  _304
REMARK  121  A    between atoms: _304  and  _305
REMARK  122  A    between atoms: _308  and  _310
REMARK  123  A    between atoms: _310  and  _311
REMARK  124  A    between atoms: _310  and  _313
REMARK  125  A    between atoms: _313  and  _314
REMARK  126  A    between atoms: _316  and  _318
REMARK  127  A    between atoms: _318  and  _319
REMARK  128  A    between atoms: _318  and  _321
REMARK  129  A    between atoms: _321  and  _322
REMARK  130  A    between atoms: _332  and  _334
REMARK  131  A    between atoms: _334  and  _335
REMARK  132  A    between atoms: _334  and  _337
REMARK  133  A    between atoms: _337  and  _338
REMARK  134  A    between atoms: _338  and  _339
REMARK  135  A    between atoms: _339  and  _340
REMARK                            x       y       z     vdW  Elec       q    Type
REMARK                         _______ _______ _______ _____ _____    ______ ____
ROOT
ATOM      1  CA  ASP A   1      13.723  10.741   6.424  0.00  0.00    +0.144 C 
ENDROOT
BRANCH   1   2
ATOM      2  N   ASP A   1      14.657  11.459   7.260  0.00  0.00    -0.239 NA
ATOM      3  H   ASP A   1      14.857  12.451   7.021  0.00  0.00    +0.142 HD
ENDBRANCH   1   2
BRANCH   1   4
ATOM      4  C   ASP A   1      13.761  11.451   5.082  0.00  0.00    +0.225 C 
ATOM      5  O   ASP A   1      14.075  12.629   5.004  0.00  0.00    -0.287 OA
ENDBRANCH   1   4
BRANCH   1   6
ATOM      6  CB  ASP A   1      12.346  10.505   7.057  0.00  0.00    +0.139 C 
BRANCH   6   7
ATOM      7  CG  ASP A   1      11.699  11.736   7.669  0.00  0.00    +0.367 C 
ATOM      8  OD2 ASP A   1      10.946  11.563   8.671  0.00  0.00    -0.246 OA
ATOM      9  OD1 ASP A   1      11.920  12.862   7.175  0.00  0.00    -0.246 OA
ENDBRANCH   6   7
ENDBRANCH   1   6
TORSDOF 4
REMARK  Name = ../refined-set-2016/1od8/1od8_pocket.pdb
REMARK  135 active torsions:
REMARK  status: ('A' for Active; 'I' for Inactive)
REMARK    1  A    between atoms: _1  and  _3
REMARK    2  A    between atoms: _3  and  _4
REMARK    3  A    between atoms: _7  and  _9
REMARK    4  A    between atoms: _9  and  _10
REMARK    5  A    between atoms: _13  and  _15
REMARK    6  A    between atoms: _15  and  _16
REMARK    7  A    between atoms: _15  and  _18
REMARK    8  A    between atoms: _18  and  _19
REMARK    9  A    between atoms: _19  and  _20
REMARK   10  A    between atoms: _20  and  _21
REMARK   11  A    between atoms: _30  and  _32
REMARK   12  A    between atoms: _32  and  _33
REMARK   13  A    between atoms: _32  and  _35
REMARK   14  A    between atoms: _35  and  _36
REMARK   15  A    between atoms: _39  and  _41
REMARK   16  A    between atoms: _41  and  _42
REMARK   17  A    between atoms: _45  and  _47
REMARK   18  A    between atoms: _47  and  _48
REMARK   19  A    between atoms: _47  and  _50
REMARK   20  A    between atoms: _50  and  _51
REMARK   21  A    between atoms: _51  and  _52
REMARK   22  A    between atoms: _55  and  _57
REMARK   23  A    between atoms: _57  and  _58
REMARK   24  A    between atoms: _57  and  _60
REMARK   25  A    between atoms: _60  and  _61
REMARK   26  A    between atoms: _66  and  _68
REMARK   27  A    between atoms: _68  and  _69
REMARK   28  A    between atoms: _68  and  _71
REMARK   29  A    between atoms: _71  and  _72
REMARK   30  A    between atoms: _72  and  _73
REMARK   31  A    between atoms: _73  and  _74
REMARK   32  A    between atoms: _74  and  _75
REMARK   33  A    between atoms: _79  and  _81
REMARK   34  A    between atoms: _81  and  _82
REMARK   35  A    between atoms: _81  and  _84
REMARK   36  A    between atoms: _84  and  _85
REMARK   37  A    between atoms: _85  and  _86
REMARK   38  A    between atoms: _86  and  _87
REMARK   39  A    between atoms: _96  and  _98
REMARK   40  A    between atoms: _98  and  _99
REMARK   41  A    between atoms: _98  and  _101
REMARK   42  A    between atoms: _101  and  _102
REMARK   43  A    between atoms: _107  and  _109
REMARK   44  A    between atoms: _109  and  _110
REMARK   45  A    between atoms: _109  and  _112
REMARK   46  A    between atoms: _112  and  _113
REMARK   47  A    between atoms: _116  and  _118
REMARK   48  A    between atoms: _118  and  _119
REMARK   49  A    between atoms: _118  and  _121
REMARK   50  A    between atoms: _121  and  _122
REMARK   51  A    between atoms: _132  and  _134
REMARK   52  A    between atoms: _134  and  _135
REMARK   53  A    between atoms: _134  and  _137
REMARK   54  A    between atoms: _137  and  _138
REMARK   55  A    between atoms: _143  and  _145
REMARK   56  A    between atoms: _145  and  _146
REMARK   57  A    between atoms: _145  and  _148
REMARK   58  A    between atoms: _148  and  _149
REMARK   59  A    between atoms: _151  and  _153
REMARK   60  A    between atoms: _153  and  _154
REMARK   61  A    between atoms: _153  and  _156
REMARK   62  A    between atoms: _156  and  _157
REMARK   63  A    between atoms: _157  and  _158
REMARK   64  A    between atoms: _163  and  _165
REMARK   65  A    between atoms: _165  and  _166
REMARK   66  A    between atoms: _165  and  _168
REMARK   67  A    between atoms: _168  and  _169
REMARK   68  A    between atoms: _172  and  _174
REMARK   69  A    between atoms: _174  and  _175
REMARK   70  A    between atoms: _174  and  _177
REMARK   71  A    between atoms: _177  and  _178
REMARK   72  A    between atoms: _183  and  _185
REMARK   73  A    between atoms: _185  and  _186
REMARK   74  A    between atoms: _185  and  _188
REMARK   75  A    between atoms: _188  and  _189
REMARK   76  A    between atoms: _189  and  _190
REMARK   77  A    between atoms: _193  and  _195
REMARK   78  A    between atoms: _195  and  _196
REMARK   79  A    between atoms: _195  and  _198
REMARK   80  A    between atoms: _198  and  _199
REMARK   81  A    between atoms: _204  and  _206
REMARK   82  A    between atoms: _206  and  _207
REMARK   83  A    between atoms: _206  and  _209
REMARK   84  A    between atoms: _209  and  _210
REMARK   85  A    between atoms: _213  and  _215
REMARK   86  A    between atoms: _215  and  _216
REMARK   87  A    between atoms: _215  and  _218
REMARK   88  A    between atoms: _218  and  _219
REMARK   89  A    between atoms: _224  and  _225
REMARK   90  A    between atoms: _227  and  _229
REMARK   91  A    between atoms: _229  and  _230
REMARK   92  A    between atoms: _229  and  _232
REMARK   93  A    between atoms: _232  and  _233
REMARK   94  A    between atoms: _233  and  _234
REMARK   95  A    between atoms: _239  and  _241
REMARK   96  A    between atoms: _241  and  _242
REMARK   97  A    between atoms: _241  and  _244
REMARK   98  A    between atoms: _244  and  _245
REMARK   99  A    between atoms: _250  and  _252
REMARK  100  A    between atoms: _252  and  _253
REMARK  101  A    between atoms: _252  and  _255
REMARK  102  A    between atoms: _255  and  _256
REMARK  103  A    between atoms: _259  and  _261
REMARK  104  A    between atoms: _261  and  _262
REMARK  105  A    between atoms: _261  and  _264
REMARK  106  A    between atoms: _264  and  _265
REMARK  107  A    between atoms: _265  and  _266
REMARK  108  A    between atoms: _269  and  _271
REMARK  109  A    between atoms: _271  and  _272
REMARK  110  A    between atoms: _271  and  _274
REMARK  111  A    between atoms: _274  and  _275
REMARK  112  A    between atoms: _278  and  _280
REMARK  113  A    between atoms: _280  and  _281
REMARK  114  A    between atoms: _280  and  _283
REMARK  115  A    between atoms: _283  and  _284
REMARK  116  A    between atoms: _294  and  _296
REMARK  117  A    between atoms: _296  and  _297
REMARK  118  A    between atoms: _299  and  _301
REMARK  119  A    between atoms: _301  and  _302
REMARK  120  A    between atoms: _301  and  _304
REMARK  121  A    between atoms: _304  and  _305
REMARK  122  A    between atoms: _308  and  _310
REMARK  123  A    between atoms: _310  and  _311
REMARK  124  A    between atoms: _310  and  _313
REMARK  125  A    between atoms: _313  and  _314
REMARK  126  A    between atoms: _316  and  _318
REMARK  127  A    between atoms: _318  and  _319
REMARK  128  A    between atoms: _318  and  _321
REMARK  129  A    between atoms: _321  and  _322
REMARK  130  A    between atoms: _332  and  _334
REMARK  131  A    between atoms: _334  and  _335
REMARK  132  A    between atoms: _334  and  _337
REMARK  133  A    between atoms: _337  and  _338
REMARK  134  A    between atoms: _338  and  _339
REMARK  135  A    between atoms: _339  and  _340
REMARK                            x       y       z     vdW  Elec       q    Type
REMARK                         _______ _______ _______ _____ _____    ______ ____
ROOT
ATOM      1  CB  TRP A   1      12.417  10.494  11.918  0.00  0.00    +0.054 C 
ENDROOT
BRANCH   1   2
ATOM      2  CG  TRP A   1      11.628  11.020  13.062  0.00  0.00    -0.002 A 
ATOM      3  CD2 TRP A   1      12.114  11.310  14.391  0.00  0.00    +0.013 A 
ATOM      4  CE2 TRP A   1      11.023  11.791  15.138  0.00  0.00    +0.056 A 
ATOM      5  CZ2 TRP A   1      11.133  12.146  16.467  0.00  0.00    +0.017 A 
ATOM      6  CH2 TRP A   1      12.363  12.038  17.036  0.00  0.00    +0.001 A 
ATOM      7  CZ3 TRP A   1      13.469  11.568  16.308  0.00  0.00    +0.000 A 
ATOM      8  NE1 TRP A   1       9.941  11.783  14.311  0.00  0.00    -0.352 N 
ATOM      9  HE1 TRP A   1       8.980  12.073  14.584  0.00  0.00    +0.166 HD
ATOM     10  CE3 TRP A   1      13.356  11.224  15.016  0.00  0.00    +0.001 A 
ATOM     11  CD1 TRP A   1      10.301  11.339  13.072  0.00  0.00    +0.068 A 
ENDBRANCH   1   2
BRANCH   1  12
ATOM     12  CA  TRP A   1      12.989   9.091  12.213  0.00  0.00    +0.149 C 
BRANCH  12  13
ATOM     13  C   TRP A   1      11.936   7.970  12.106  0.00  0.00    +0.239 C 
ATOM     14  N   GLY A   2      12.374   6.791  12.534  0.00  0.00    -0.297 N 
ATOM     15  H   GLY A   2      13.352   6.723  12.882  0.00  0.00    +0.150 HD
ATOM     16  O   TRP A   1      10.816   8.147  11.673  0.00  0.00    -0.274 OA
BRANCH  14  17
ATOM     17  CA  GLY A   2      11.564   5.607  12.539  0.00  0.00    +0.163 C 
BRANCH  17  18
ATOM     18  C   GLY A   2      12.201   4.410  11.870  0.00  0.00    +0.229 C 
ATOM     19  O   GLY A   2      13.265   4.510  11.267  0.00  0.00    -0.286 OA
ENDBRANCH  17  18
ENDBRANCH  14  17
ENDBRANCH  12  13
BRANCH  12  20
ATOM     20  N   TRP A   1      14.184   8.823  11.400  0.00  0.00    -0.238 NA
ATOM     21  H   TRP A   1      14.233   9.195  10.430  0.00  0.00    +0.142 HD
ENDBRANCH  12  20
ENDBRANCH   1  12
TORSDOF 6
REMARK  Name = ../refined-set-2016/1od8/1od8_pocket.pdb
REMARK  135 active torsions:
REMARK  status: ('A' for Active; 'I' for Inactive)
REMARK    1  A    between atoms: _1  and  _3
REMARK    2  A    between atoms: _3  and  _4
REMARK    3  A    between atoms: _7  and  _9
REMARK    4  A    between atoms: _9  and  _10
REMARK    5  A    between atoms: _13  and  _15
REMARK    6  A    between atoms: _15  and  _16
REMARK    7  A    between atoms: _15  and  _18
REMARK    8  A    between atoms: _18  and  _19
REMARK    9  A    between atoms: _19  and  _20
REMARK   10  A    between atoms: _20  and  _21
REMARK   11  A    between atoms: _30  and  _32
REMARK   12  A    between atoms: _32  and  _33
REMARK   13  A    between atoms: _32  and  _35
REMARK   14  A    between atoms: _35  and  _36
REMARK   15  A    between atoms: _39  and  _41
REMARK   16  A    between atoms: _41  and  _42
REMARK   17  A    between atoms: _45  and  _47
REMARK   18  A    between atoms: _47  and  _48
REMARK   19  A    between atoms: _47  and  _50
REMARK   20  A    between atoms: _50  and  _51
REMARK   21  A    between atoms: _51  and  _52
REMARK   22  A    between atoms: _55  and  _57
REMARK   23  A    between atoms: _57  and  _58
REMARK   24  A    between atoms: _57  and  _60
REMARK   25  A    between atoms: _60  and  _61
REMARK   26  A    between atoms: _66  and  _68
REMARK   27  A    between atoms: _68  and  _69
REMARK   28  A    between atoms: _68  and  _71
REMARK   29  A    between atoms: _71  and  _72
REMARK   30  A    between atoms: _72  and  _73
REMARK   31  A    between atoms: _73  and  _74
REMARK   32  A    between atoms: _74  and  _75
REMARK   33  A    between atoms: _79  and  _81
REMARK   34  A    between atoms: _81  and  _82
REMARK   35  A    between atoms: _81  and  _84
REMARK   36  A    between atoms: _84  and  _85
REMARK   37  A    between atoms: _85  and  _86
REMARK   38  A    between atoms: _86  and  _87
REMARK   39  A    between atoms: _96  and  _98
REMARK   40  A    between atoms: _98  and  _99
REMARK   41  A    between atoms: _98  and  _101
REMARK   42  A    between atoms: _101  and  _102
REMARK   43  A    between atoms: _107  and  _109
REMARK   44  A    between atoms: _109  and  _110
REMARK   45  A    between atoms: _109  and  _112
REMARK   46  A    between atoms: _112  and  _113
REMARK   47  A    between atoms: _116  and  _118
REMARK   48  A    between atoms: _118  and  _119
REMARK   49  A    between atoms: _118  and  _121
REMARK   50  A    between atoms: _121  and  _122
REMARK   51  A    between atoms: _132  and  _134
REMARK   52  A    between atoms: _134  and  _135
REMARK   53  A    between atoms: _134  and  _137
REMARK   54  A    between atoms: _137  and  _138
REMARK   55  A    between atoms: _143  and  _145
REMARK   56  A    between atoms: _145  and  _146
REMARK   57  A    between atoms: _145  and  _148
REMARK   58  A    between atoms: _148  and  _149
REMARK   59  A    between atoms: _151  and  _153
REMARK   60  A    between atoms: _153  and  _154
REMARK   61  A    between atoms: _153  and  _156
REMARK   62  A    between atoms: _156  and  _157
REMARK   63  A    between atoms: _157  and  _158
REMARK   64  A    between atoms: _163  and  _165
REMARK   65  A    between atoms: _165  and  _166
REMARK   66  A    between atoms: _165  and  _168
REMARK   67  A    between atoms: _168  and  _169
REMARK   68  A    between atoms: _172  and  _174
REMARK   69  A    between atoms: _174  and  _175
REMARK   70  A    between atoms: _174  and  _177
REMARK   71  A    between atoms: _177  and  _178
REMARK   72  A    between atoms: _183  and  _185
REMARK   73  A    between atoms: _185  and  _186
REMARK   74  A    between atoms: _185  and  _188
REMARK   75  A    between atoms: _188  and  _189
REMARK   76  A    between atoms: _189  and  _190
REMARK   77  A    between atoms: _193  and  _195
REMARK   78  A    between atoms: _195  and  _196
REMARK   79  A    between atoms: _195  and  _198
REMARK   80  A    between atoms: _198  and  _199
REMARK   81  A    between atoms: _204  and  _206
REMARK   82  A    between atoms: _206  and  _207
REMARK   83  A    between atoms: _206  and  _209
REMARK   84  A    between atoms: _209  and  _210
REMARK   85  A    between atoms: _213  and  _215
REMARK   86  A    between atoms: _215  and  _216
REMARK   87  A    between atoms: _215  and  _218
REMARK   88  A    between atoms: _218  and  _219
REMARK   89  A    between atoms: _224  and  _225
REMARK   90  A    between atoms: _227  and  _229
REMARK   91  A    between atoms: _229  and  _230
REMARK   92  A    between atoms: _229  and  _232
REMARK   93  A    between atoms: _232  and  _233
REMARK   94  A    between atoms: _233  and  _234
REMARK   95  A    between atoms: _239  and  _241
REMARK   96  A    between atoms: _241  and  _242
REMARK   97  A    between atoms: _241  and  _244
REMARK   98  A    between atoms: _244  and  _245
REMARK   99  A    between atoms: _250  and  _252
REMARK  100  A    between atoms: _252  and  _253
REMARK  101  A    between atoms: _252  and  _255
REMARK  102  A    between atoms: _255  and  _256
REMARK  103  A    between atoms: _259  and  _261
REMARK  104  A    between atoms: _261  and  _262
REMARK  105  A    between atoms: _261  and  _264
REMARK  106  A    between atoms: _264  and  _265
REMARK  107  A    between atoms: _265  and  _266
REMARK  108  A    between atoms: _269  and  _271
REMARK  109  A    between atoms: _271  and  _272
REMARK  110  A    between atoms: _271  and  _274
REMARK  111  A    between atoms: _274  and  _275
REMARK  112  A    between atoms: _278  and  _280
REMARK  113  A    between atoms: _280  and  _281
REMARK  114  A    between atoms: _280  and  _283
REMARK  115  A    between atoms: _283  and  _284
REMARK  116  A    between atoms: _294  and  _296
REMARK  117  A    between atoms: _296  and  _297
REMARK  118  A    between atoms: _299  and  _301
REMARK  119  A    between atoms: _301  and  _302
REMARK  120  A    between atoms: _301  and  _304
REMARK  121  A    between atoms: _304  and  _305
REMARK  122  A    between atoms: _308  and  _310
REMARK  123  A    between atoms: _310  and  _311
REMARK  124  A    between atoms: _310  and  _313
REMARK  125  A    between atoms: _313  and  _314
REMARK  126  A    between atoms: _316  and  _318
REMARK  127  A    between atoms: _318  and  _319
REMARK  128  A    between atoms: _318  and  _321
REMARK  129  A    between atoms: _321  and  _322
REMARK  130  A    between atoms: _332  and  _334
REMARK  131  A    between atoms: _334  and  _335
REMARK  132  A    between atoms: _334  and  _337
REMARK  133  A    between atoms: _337  and  _338
REMARK  134  A    between atoms: _338  and  _339
REMARK  135  A    between atoms: _339  and  _340
REMARK                            x       y       z     vdW  Elec       q    Type
REMARK                         _______ _______ _______ _____ _____    ______ ____
ROOT
ATOM      1  CA  TRP A   3       4.977  10.157  10.926  0.00  0.00    +0.153 C 
ENDROOT
BRANCH   1   3
ATOM      2  C   SER A   2       5.704   7.933  10.252  0.00  0.00    +0.243 C 
ATOM      3  N   TRP A   3       5.965   9.090  10.850  0.00  0.00    -0.297 N 
ATOM      4  H   TRP A   3       6.902   9.238  11.276  0.00  0.00    +0.150 HD
ATOM      5  O   SER A   2       4.564   7.629   9.829  0.00  0.00    -0.273 OA
BRANCH   2   6
ATOM      6  CA  SER A   2       6.873   7.030  10.023  0.00  0.00    +0.178 C 
BRANCH   6   9
ATOM      7  C   ASP A   1       6.389   5.128  11.430  0.00  0.00    +0.239 C 
ATOM      8  O   ASP A   1       6.424   5.829  12.437  0.00  0.00    -0.274 OA
ATOM      9  N   SER A   2       6.546   5.619  10.213  0.00  0.00    -0.295 N 
ATOM     10  H   SER A   2       6.436   4.998   9.386  0.00  0.00    +0.150 HD
BRANCH   7  11
ATOM     11  CA  ASP A   1       6.182   3.635  11.596  0.00  0.00    +0.156 C 
BRANCH  11  12
ATOM     12  N   ASP A   1       5.894   2.977  10.332  0.00  0.00    -0.238 NA
ATOM     13  H   ASP A   1       6.662   2.475   9.843  0.00  0.00    +0.142 HD
ENDBRANCH  11  12
BRANCH  11  14
ATOM     14  CB  ASP A   1       7.450   3.058  12.217  0.00  0.00    +0.140 C 
BRANCH  14  15
ATOM     15  CG  ASP A   1       7.329   1.603  12.573  0.00  0.00    +0.367 C 
ATOM     16  OD2 ASP A   1       6.309   1.223  13.229  0.00  0.00    -0.246 OA
ATOM     17  OD1 ASP A   1       8.239   0.817  12.211  0.00  0.00    -0.246 OA
ENDBRANCH  14  15
ENDBRANCH  11  14
ENDBRANCH   7  11
ENDBRANCH   6   9
BRANCH   6  18
ATOM     18  CB  SER A   2       7.310   7.243   8.563  0.00  0.00    +0.166 C 
BRANCH  18  19
ATOM     19  OG  SER A   2       7.554   8.605   8.291  0.00  0.00    -0.380 OA
ATOM     20  H   SER A   2       8.273   8.935   8.886  0.00  0.00    +0.211 HD
ENDBRANCH  18  19
ENDBRANCH   6  18
ENDBRANCH   2   6
ENDBRANCH   1   3
BRANCH   1  21
ATOM     21  C   TRP A   3       4.505  10.592   9.545  0.00  0.00    +0.241 C 
ATOM     22  O   TRP A   3       3.425  11.186   9.439  0.00  0.00    -0.273 OA
ATOM     23  N   ARG A   4       5.306  10.309   8.510  0.00  0.00    -0.298 N 
ATOM     24  H   ARG A   4       6.192   9.802   8.710  0.00  0.00    +0.150 HD
BRANCH  23  25
ATOM     25  CA  ARG A   4       5.032  10.653   7.151  0.00  0.00    +0.137 C 
BRANCH  25  26
ATOM     26  C   ARG A   4       5.090   9.395   6.264  0.00  0.00    +0.227 C 
ATOM     27  O   ARG A   4       5.652   9.371   5.186  0.00  0.00    -0.286 OA
ENDBRANCH  25  26
BRANCH  25  28
ATOM     28  CB  ARG A   4       5.954  11.740   6.660  0.00  0.00    +0.031 C 
BRANCH  28  29
ATOM     29  CG  ARG A   4       5.683  13.069   7.322  0.00  0.00    +0.045 C 
BRANCH  29  30
ATOM     30  CD  ARG A   4       6.553  14.173   6.835  0.00  0.00    +0.174 C 
BRANCH  30  31
ATOM     31  NE  ARG A   4       6.115  15.456   7.396  0.00  0.00    -0.265 N 
ATOM     32  HE  ARG A   4       5.260  15.451   7.988  0.00  0.00    +0.259 HD
ATOM     33  CZ  ARG A   4       6.710  16.605   7.213  0.00  0.00    +0.342 C 
ATOM     34  NH2 ARG A   4       6.228  17.692   7.771  0.00  0.00    -0.292 N 
ATOM     35 HH21 ARG A   4       5.372  17.639   8.359  0.00  0.00    +0.255 HD
ATOM     36 HH22 ARG A   4       6.702  18.606   7.625  0.00  0.00    +0.255 HD
ATOM     37  NH1 ARG A   4       7.794  16.674   6.482  0.00  0.00    -0.292 N 
ATOM     38 HH11 ARG A   4       8.266  17.589   6.337  0.00  0.00    +0.255 HD
ATOM     39 HH12 ARG A   4       8.183  15.814   6.046  0.00  0.00    +0.255 HD
ENDBRANCH  30  31
ENDBRANCH  29  30
ENDBRANCH  28  29
ENDBRANCH  25  28
ENDBRANCH  23  25
ENDBRANCH   1  21
BRANCH   1  40
ATOM     40  CB  TRP A   3       5.541  11.355  11.691  0.00  0.00    +0.057 C 
BRANCH  40  41
ATOM     41  CG  TRP A   3       6.651  12.105  11.029  0.00  0.00    -0.002 A 
ATOM     42  CD2 TRP A   3       6.757  13.519  10.955  0.00  0.00    +0.013 A 
ATOM     43  CE3 TRP A   3       5.951  14.566  11.416  0.00  0.00    +0.001 A 
ATOM     44  CZ3 TRP A   3       6.326  15.858  11.187  0.00  0.00    +0.000 A 
ATOM     45  CH2 TRP A   3       7.503  16.155  10.499  0.00  0.00    +0.001 A 
ATOM     46  CZ2 TRP A   3       8.320  15.160  10.038  0.00  0.00    +0.017 A 
ATOM     47  CE2 TRP A   3       7.941  13.835  10.275  0.00  0.00    +0.056 A 
ATOM     48  NE1 TRP A   3       8.550  12.658   9.923  0.00  0.00    -0.352 N 
ATOM     49  HE1 TRP A   3       9.443  12.564   9.398  0.00  0.00    +0.166 HD
ATOM     50  CD1 TRP A   3       7.766  11.615  10.390  0.00  0.00    +0.068 A 
ENDBRANCH  40  41
ENDBRANCH   1  40
TORSDOF 18
REMARK  Name = ../refined-set-2016/1od8/1od8_pocket.pdb
REMARK  135 active torsions:
REMARK  status: ('A' for Active; 'I' for Inactive)
REMARK    1  A    between atoms: _1  and  _3
REMARK    2  A    between atoms: _3  and  _4
REMARK    3  A    between atoms: _7  and  _9
REMARK    4  A    between atoms: _9  and  _10
REMARK    5  A    between atoms: _13  and  _15
REMARK    6  A    between atoms: _15  and  _16
REMARK    7  A    between atoms: _15  and  _18
REMARK    8  A    between atoms: _18  and  _19
REMARK    9  A    between atoms: _19  and  _20
REMARK   10  A    between atoms: _20  and  _21
REMARK   11  A    between atoms: _30  and  _32
REMARK   12  A    between atoms: _32  and  _33
REMARK   13  A    between atoms: _32  and  _35
REMARK   14  A    between atoms: _35  and  _36
REMARK   15  A    between atoms: _39  and  _41
REMARK   16  A    between atoms: _41  and  _42
REMARK   17  A    between atoms: _45  and  _47
REMARK   18  A    between atoms: _47  and  _48
REMARK   19  A    between atoms: _47  and  _50
REMARK   20  A    between atoms: _50  and  _51
REMARK   21  A    between atoms: _51  and  _52
REMARK   22  A    between atoms: _55  and  _57
REMARK   23  A    between atoms: _57  and  _58
REMARK   24  A    between atoms: _57  and  _60
REMARK   25  A    between atoms: _60  and  _61
REMARK   26  A    between atoms: _66  and  _68
REMARK   27  A    between atoms: _68  and  _69
REMARK   28  A    between atoms: _68  and  _71
REMARK   29  A    between atoms: _71  and  _72
REMARK   30  A    between atoms: _72  and  _73
REMARK   31  A    between atoms: _73  and  _74
REMARK   32  A    between atoms: _74  and  _75
REMARK   33  A    between atoms: _79  and  _81
REMARK   34  A    between atoms: _81  and  _82
REMARK   35  A    between atoms: _81  and  _84
REMARK   36  A    between atoms: _84  and  _85
REMARK   37  A    between atoms: _85  and  _86
REMARK   38  A    between atoms: _86  and  _87
REMARK   39  A    between atoms: _96  and  _98
REMARK   40  A    between atoms: _98  and  _99
REMARK   41  A    between atoms: _98  and  _101
REMARK   42  A    between atoms: _101  and  _102
REMARK   43  A    between atoms: _107  and  _109
REMARK   44  A    between atoms: _109  and  _110
REMARK   45  A    between atoms: _109  and  _112
REMARK   46  A    between atoms: _112  and  _113
REMARK   47  A    between atoms: _116  and  _118
REMARK   48  A    between atoms: _118  and  _119
REMARK   49  A    between atoms: _118  and  _121
REMARK   50  A    between atoms: _121  and  _122
REMARK   51  A    between atoms: _132  and  _134
REMARK   52  A    between atoms: _134  and  _135
REMARK   53  A    between atoms: _134  and  _137
REMARK   54  A    between atoms: _137  and  _138
REMARK   55  A    between atoms: _143  and  _145
REMARK   56  A    between atoms: _145  and  _146
REMARK   57  A    between atoms: _145  and  _148
REMARK   58  A    between atoms: _148  and  _149
REMARK   59  A    between atoms: _151  and  _153
REMARK   60  A    between atoms: _153  and  _154
REMARK   61  A    between atoms: _153  and  _156
REMARK   62  A    between atoms: _156  and  _157
REMARK   63  A    between atoms: _157  and  _158
REMARK   64  A    between atoms: _163  and  _165
REMARK   65  A    between atoms: _165  and  _166
REMARK   66  A    between atoms: _165  and  _168
REMARK   67  A    between atoms: _168  and  _169
REMARK   68  A    between atoms: _172  and  _174
REMARK   69  A    between atoms: _174  and  _175
REMARK   70  A    between atoms: _174  and  _177
REMARK   71  A    between atoms: _177  and  _178
REMARK   72  A    between atoms: _183  and  _185
REMARK   73  A    between atoms: _185  and  _186
REMARK   74  A    between atoms: _185  and  _188
REMARK   75  A    between atoms: _188  and  _189
REMARK   76  A    between atoms: _189  and  _190
REMARK   77  A    between atoms: _193  and  _195
REMARK   78  A    between atoms: _195  and  _196
REMARK   79  A    between atoms: _195  and  _198
REMARK   80  A    between atoms: _198  and  _199
REMARK   81  A    between atoms: _204  and  _206
REMARK   82  A    between atoms: _206  and  _207
REMARK   83  A    between atoms: _206  and  _209
REMARK   84  A    between atoms: _209  and  _210
REMARK   85  A    between atoms: _213  and  _215
REMARK   86  A    between atoms: _215  and  _216
REMARK   87  A    between atoms: _215  and  _218
REMARK   88  A    between atoms: _218  and  _219
REMARK   89  A    between atoms: _224  and  _225
REMARK   90  A    between atoms: _227  and  _229
REMARK   91  A    between atoms: _229  and  _230
REMARK   92  A    between atoms: _229  and  _232
REMARK   93  A    between atoms: _232  and  _233
REMARK   94  A    between atoms: _233  and  _234
REMARK   95  A    between atoms: _239  and  _241
REMARK   96  A    between atoms: _241  and  _242
REMARK   97  A    between atoms: _241  and  _244
REMARK   98  A    between atoms: _244  and  _245
REMARK   99  A    between atoms: _250  and  _252
REMARK  100  A    between atoms: _252  and  _253
REMARK  101  A    between atoms: _252  and  _255
REMARK  102  A    between atoms: _255  and  _256
REMARK  103  A    between atoms: _259  and  _261
REMARK  104  A    between atoms: _261  and  _262
REMARK  105  A    between atoms: _261  and  _264
REMARK  106  A    between atoms: _264  and  _265
REMARK  107  A    between atoms: _265  and  _266
REMARK  108  A    between atoms: _269  and  _271
REMARK  109  A    between atoms: _271  and  _272
REMARK  110  A    between atoms: _271  and  _274
REMARK  111  A    between atoms: _274  and  _275
REMARK  112  A    between atoms: _278  and  _280
REMARK  113  A    between atoms: _280  and  _281
REMARK  114  A    between atoms: _280  and  _283
REMARK  115  A    between atoms: _283  and  _284
REMARK  116  A    between atoms: _294  and  _296
REMARK  117  A    between atoms: _296  and  _297
REMARK  118  A    between atoms: _299  and  _301
REMARK  119  A    between atoms: _301  and  _302
REMARK  120  A    between atoms: _301  and  _304
REMARK  121  A    between atoms: _304  and  _305
REMARK  122  A    between atoms: _308  and  _310
REMARK  123  A    between atoms: _310  and  _311
REMARK  124  A    between atoms: _310  and  _313
REMARK  125  A    between atoms: _313  and  _314
REMARK  126  A    between atoms: _316  and  _318
REMARK  127  A    between atoms: _318  and  _319
REMARK  128  A    between atoms: _318  and  _321
REMARK  129  A    between atoms: _321  and  _322
REMARK  130  A    between atoms: _332  and  _334
REMARK  131  A    between atoms: _334  and  _335
REMARK  132  A    between atoms: _334  and  _337
REMARK  133  A    between atoms: _337  and  _338
REMARK  134  A    between atoms: _338  and  _339
REMARK  135  A    between atoms: _339  and  _340
REMARK                            x       y       z     vdW  Elec       q    Type
REMARK                         _______ _______ _______ _____ _____    ______ ____
ROOT
ATOM      1  O   HOH     1       2.071  10.953  20.954  0.00  0.00    +0.000 OA
ENDROOT
TORSDOF 0
REMARK  Name = ../refined-set-2016/1od8/1od8_pocket.pdb
REMARK  135 active torsions:
REMARK  status: ('A' for Active; 'I' for Inactive)
REMARK    1  A    between atoms: _1  and  _3
REMARK    2  A    between atoms: _3  and  _4
REMARK    3  A    between atoms: _7  and  _9
REMARK    4  A    between atoms: _9  and  _10
REMARK    5  A    between atoms: _13  and  _15
REMARK    6  A    between atoms: _15  and  _16
REMARK    7  A    between atoms: _15  and  _18
REMARK    8  A    between atoms: _18  and  _19
REMARK    9  A    between atoms: _19  and  _20
REMARK   10  A    between atoms: _20  and  _21
REMARK   11  A    between atoms: _30  and  _32
REMARK   12  A    between atoms: _32  and  _33
REMARK   13  A    between atoms: _32  and  _35
REMARK   14  A    between atoms: _35  and  _36
REMARK   15  A    between atoms: _39  and  _41
REMARK   16  A    between atoms: _41  and  _42
REMARK   17  A    between atoms: _45  and  _47
REMARK   18  A    between atoms: _47  and  _48
REMARK   19  A    between atoms: _47  and  _50
REMARK   20  A    between atoms: _50  and  _51
REMARK   21  A    between atoms: _51  and  _52
REMARK   22  A    between atoms: _55  and  _57
REMARK   23  A    between atoms: _57  and  _58
REMARK   24  A    between atoms: _57  and  _60
REMARK   25  A    between atoms: _60  and  _61
REMARK   26  A    between atoms: _66  and  _68
REMARK   27  A    between atoms: _68  and  _69
REMARK   28  A    between atoms: _68  and  _71
REMARK   29  A    between atoms: _71  and  _72
REMARK   30  A    between atoms: _72  and  _73
REMARK   31  A    between atoms: _73  and  _74
REMARK   32  A    between atoms: _74  and  _75
REMARK   33  A    between atoms: _79  and  _81
REMARK   34  A    between atoms: _81  and  _82
REMARK   35  A    between atoms: _81  and  _84
REMARK   36  A    between atoms: _84  and  _85
REMARK   37  A    between atoms: _85  and  _86
REMARK   38  A    between atoms: _86  and  _87
REMARK   39  A    between atoms: _96  and  _98
REMARK   40  A    between atoms: _98  and  _99
REMARK   41  A    between atoms: _98  and  _101
REMARK   42  A    between atoms: _101  and  _102
REMARK   43  A    between atoms: _107  and  _109
REMARK   44  A    between atoms: _109  and  _110
REMARK   45  A    between atoms: _109  and  _112
REMARK   46  A    between atoms: _112  and  _113
REMARK   47  A    between atoms: _116  and  _118
REMARK   48  A    between atoms: _118  and  _119
REMARK   49  A    between atoms: _118  and  _121
REMARK   50  A    between atoms: _121  and  _122
REMARK   51  A    between atoms: _132  and  _134
REMARK   52  A    between atoms: _134  and  _135
REMARK   53  A    between atoms: _134  and  _137
REMARK   54  A    between atoms: _137  and  _138
REMARK   55  A    between atoms: _143  and  _145
REMARK   56  A    between atoms: _145  and  _146
REMARK   57  A    between atoms: _145  and  _148
REMARK   58  A    between atoms: _148  and  _149
REMARK   59  A    between atoms: _151  and  _153
REMARK   60  A    between atoms: _153  and  _154
REMARK   61  A    between atoms: _153  and  _156
REMARK   62  A    between atoms: _156  and  _157
REMARK   63  A    between atoms: _157  and  _158
REMARK   64  A    between atoms: _163  and  _165
REMARK   65  A    between atoms: _165  and  _166
REMARK   66  A    between atoms: _165  and  _168
REMARK   67  A    between atoms: _168  and  _169
REMARK   68  A    between atoms: _172  and  _174
REMARK   69  A    between atoms: _174  and  _175
REMARK   70  A    between atoms: _174  and  _177
REMARK   71  A    between atoms: _177  and  _178
REMARK   72  A    between atoms: _183  and  _185
REMARK   73  A    between atoms: _185  and  _186
REMARK   74  A    between atoms: _185  and  _188
REMARK   75  A    between atoms: _188  and  _189
REMARK   76  A    between atoms: _189  and  _190
REMARK   77  A    between atoms: _193  and  _195
REMARK   78  A    between atoms: _195  and  _196
REMARK   79  A    between atoms: _195  and  _198
REMARK   80  A    between atoms: _198  and  _199
REMARK   81  A    between atoms: _204  and  _206
REMARK   82  A    between atoms: _206  and  _207
REMARK   83  A    between atoms: _206  and  _209
REMARK   84  A    between atoms: _209  and  _210
REMARK   85  A    between atoms: _213  and  _215
REMARK   86  A    between atoms: _215  and  _216
REMARK   87  A    between atoms: _215  and  _218
REMARK   88  A    between atoms: _218  and  _219
REMARK   89  A    between atoms: _224  and  _225
REMARK   90  A    between atoms: _227  and  _229
REMARK   91  A    between atoms: _229  and  _230
REMARK   92  A    between atoms: _229  and  _232
REMARK   93  A    between atoms: _232  and  _233
REMARK   94  A    between atoms: _233  and  _234
REMARK   95  A    between atoms: _239  and  _241
REMARK   96  A    between atoms: _241  and  _242
REMARK   97  A    between atoms: _241  and  _244
REMARK   98  A    between atoms: _244  and  _245
REMARK   99  A    between atoms: _250  and  _252
REMARK  100  A    between atoms: _252  and  _253
REMARK  101  A    between atoms: _252  and  _255
REMARK  102  A    between atoms: _255  and  _256
REMARK  103  A    between atoms: _259  and  _261
REMARK  104  A    between atoms: _261  and  _262
REMARK  105  A    between atoms: _261  and  _264
REMARK  106  A    between atoms: _264  and  _265
REMARK  107  A    between atoms: _265  and  _266
REMARK  108  A    between atoms: _269  and  _271
REMARK  109  A    between atoms: _271  and  _272
REMARK  110  A    between atoms: _271  and  _274
REMARK  111  A    between atoms: _274  and  _275
REMARK  112  A    between atoms: _278  and  _280
REMARK  113  A    between atoms: _280  and  _281
REMARK  114  A    between atoms: _280  and  _283
REMARK  115  A    between atoms: _283  and  _284
REMARK  116  A    between atoms: _294  and  _296
REMARK  117  A    between atoms: _296  and  _297
REMARK  118  A    between atoms: _299  and  _301
REMARK  119  A    between atoms: _301  and  _302
REMARK  120  A    between atoms: _301  and  _304
REMARK  121  A    between atoms: _304  and  _305
REMARK  122  A    between atoms: _308  and  _310
REMARK  123  A    between atoms: _310  and  _311
REMARK  124  A    between atoms: _310  and  _313
REMARK  125  A    between atoms: _313  and  _314
REMARK  126  A    between atoms: _316  and  _318
REMARK  127  A    between atoms: _318  and  _319
REMARK  128  A    between atoms: _318  and  _321
REMARK  129  A    between atoms: _321  and  _322
REMARK  130  A    between atoms: _332  and  _334
REMARK  131  A    between atoms: _334  and  _335
REMARK  132  A    between atoms: _334  and  _337
REMARK  133  A    between atoms: _337  and  _338
REMARK  134  A    between atoms: _338  and  _339
REMARK  135  A    between atoms: _339  and  _340
REMARK                            x       y       z     vdW  Elec       q    Type
REMARK                         _______ _______ _______ _____ _____    ______ ____
ROOT
ATOM      1  O   UNL     1       3.422  16.781  13.351  0.00  0.00    +0.000 OA
ATOM      2  O   UNL     1       4.000  18.333  12.882  0.00  0.00    +0.000 OA
ENDROOT
TORSDOF 0
REMARK  Name = ../refined-set-2016/1od8/1od8_pocket.pdb
REMARK  135 active torsions:
REMARK  status: ('A' for Active; 'I' for Inactive)
REMARK    1  A    between atoms: _1  and  _3
REMARK    2  A    between atoms: _3  and  _4
REMARK    3  A    between atoms: _7  and  _9
REMARK    4  A    between atoms: _9  and  _10
REMARK    5  A    between atoms: _13  and  _15
REMARK    6  A    between atoms: _15  and  _16
REMARK    7  A    between atoms: _15  and  _18
REMARK    8  A    between atoms: _18  and  _19
REMARK    9  A    between atoms: _19  and  _20
REMARK   10  A    between atoms: _20  and  _21
REMARK   11  A    between atoms: _30  and  _32
REMARK   12  A    between atoms: _32  and  _33
REMARK   13  A    between atoms: _32  and  _35
REMARK   14  A    between atoms: _35  and  _36
REMARK   15  A    between atoms: _39  and  _41
REMARK   16  A    between atoms: _41  and  _42
REMARK   17  A    between atoms: _45  and  _47
REMARK   18  A    between atoms: _47  and  _48
REMARK   19  A    between atoms: _47  and  _50
REMARK   20  A    between atoms: _50  and  _51
REMARK   21  A    between atoms: _51  and  _52
REMARK   22  A    between atoms: _55  and  _57
REMARK   23  A    between atoms: _57  and  _58
REMARK   24  A    between atoms: _57  and  _60
REMARK   25  A    between atoms: _60  and  _61
REMARK   26  A    between atoms: _66  and  _68
REMARK   27  A    between atoms: _68  and  _69
REMARK   28  A    between atoms: _68  and  _71
REMARK   29  A    between atoms: _71  and  _72
REMARK   30  A    between atoms: _72  and  _73
REMARK   31  A    between atoms: _73  and  _74
REMARK   32  A    between atoms: _74  and  _75
REMARK   33  A    between atoms: _79  and  _81
REMARK   34  A    between atoms: _81  and  _82
REMARK   35  A    between atoms: _81  and  _84
REMARK   36  A    between atoms: _84  and  _85
REMARK   37  A    between atoms: _85  and  _86
REMARK   38  A    between atoms: _86  and  _87
REMARK   39  A    between atoms: _96  and  _98
REMARK   40  A    between atoms: _98  and  _99
REMARK   41  A    between atoms: _98  and  _101
REMARK   42  A    between atoms: _101  and  _102
REMARK   43  A    between atoms: _107  and  _109
REMARK   44  A    between atoms: _109  and  _110
REMARK   45  A    between atoms: _109  and  _112
REMARK   46  A    between atoms: _112  and  _113
REMARK   47  A    between atoms: _116  and  _118
REMARK   48  A    between atoms: _118  and  _119
REMARK   49  A    between atoms: _118  and  _121
REMARK   50  A    between atoms: _121  and  _122
REMARK   51  A    between atoms: _132  and  _134
REMARK   52  A    between atoms: _134  and  _135
REMARK   53  A    between atoms: _134  and  _137
REMARK   54  A    between atoms: _137  and  _138
REMARK   55  A    between atoms: _143  and  _145
REMARK   56  A    between atoms: _145  and  _146
REMARK   57  A    between atoms: _145  and  _148
REMARK   58  A    between atoms: _148  and  _149
REMARK   59  A    between atoms: _151  and  _153
REMARK   60  A    between atoms: _153  and  _154
REMARK   61  A    between atoms: _153  and  _156
REMARK   62  A    between atoms: _156  and  _157
REMARK   63  A    between atoms: _157  and  _158
REMARK   64  A    between atoms: _163  and  _165
REMARK   65  A    between atoms: _165  and  _166
REMARK   66  A    between atoms: _165  and  _168
REMARK   67  A    between atoms: _168  and  _169
REMARK   68  A    between atoms: _172  and  _174
REMARK   69  A    between atoms: _174  and  _175
REMARK   70  A    between atoms: _174  and  _177
REMARK   71  A    between atoms: _177  and  _178
REMARK   72  A    between atoms: _183  and  _185
REMARK   73  A    between atoms: _185  and  _186
REMARK   74  A    between atoms: _185  and  _188
REMARK   75  A    between atoms: _188  and  _189
REMARK   76  A    between atoms: _189  and  _190
REMARK   77  A    between atoms: _193  and  _195
REMARK   78  A    between atoms: _195  and  _196
REMARK   79  A    between atoms: _195  and  _198
REMARK   80  A    between atoms: _198  and  _199
REMARK   81  A    between atoms: _204  and  _206
REMARK   82  A    between atoms: _206  and  _207
REMARK   83  A    between atoms: _206  and  _209
REMARK   84  A    between atoms: _209  and  _210
REMARK   85  A    between atoms: _213  and  _215
REMARK   86  A    between atoms: _215  and  _216
REMARK   87  A    between atoms: _215  and  _218
REMARK   88  A    between atoms: _218  and  _219
REMARK   89  A    between atoms: _224  and  _225
REMARK   90  A    between atoms: _227  and  _229
REMARK   91  A    between atoms: _229  and  _230
REMARK   92  A    between atoms: _229  and  _232
REMARK   93  A    between atoms: _232  and  _233
REMARK   94  A    between atoms: _233  and  _234
REMARK   95  A    between atoms: _239  and  _241
REMARK   96  A    between atoms: _241  and  _242
REMARK   97  A    between atoms: _241  and  _244
REMARK   98  A    between atoms: _244  and  _245
REMARK   99  A    between atoms: _250  and  _252
REMARK  100  A    between atoms: _252  and  _253
REMARK  101  A    between atoms: _252  and  _255
REMARK  102  A    between atoms: _255  and  _256
REMARK  103  A    between atoms: _259  and  _261
REMARK  104  A    between atoms: _261  and  _262
REMARK  105  A    between atoms: _261  and  _264
REMARK  106  A    between atoms: _264  and  _265
REMARK  107  A    between atoms: _265  and  _266
REMARK  108  A    between atoms: _269  and  _271
REMARK  109  A    between atoms: _271  and  _272
REMARK  110  A    between atoms: _271  and  _274
REMARK  111  A    between atoms: _274  and  _275
REMARK  112  A    between atoms: _278  and  _280
REMARK  113  A    between atoms: _280  and  _281
REMARK  114  A    between atoms: _280  and  _283
REMARK  115  A    between atoms: _283  and  _284
REMARK  116  A    between atoms: _294  and  _296
REMARK  117  A    between atoms: _296  and  _297
REMARK  118  A    between atoms: _299  and  _301
REMARK  119  A    between atoms: _301  and  _302
REMARK  120  A    between atoms: _301  and  _304
REMARK  121  A    between atoms: _304  and  _305
REMARK  122  A    between atoms: _308  and  _310
REMARK  123  A    between atoms: _310  and  _311
REMARK  124  A    between atoms: _310  and  _313
REMARK  125  A    between atoms: _313  and  _314
REMARK  126  A    between atoms: _316  and  _318
REMARK  127  A    between atoms: _318  and  _319
REMARK  128  A    between atoms: _318  and  _321
REMARK  129  A    between atoms: _321  and  _322
REMARK  130  A    between atoms: _332  and  _334
REMARK  131  A    between atoms: _334  and  _335
REMARK  132  A    between atoms: _334  and  _337
REMARK  133  A    between atoms: _337  and  _338
REMARK  134  A    between atoms: _338  and  _339
REMARK  135  A    between atoms: _339  and  _340
REMARK                            x       y       z     vdW  Elec       q    Type
REMARK                         _______ _______ _______ _____ _____    ______ ____
ROOT
ATOM      1  O   HOH     1       3.104   8.800  22.037  0.00  0.00    +0.000 OA
ENDROOT
TORSDOF 0
REMARK  Name = ../refined-set-2016/1od8/1od8_pocket.pdb
REMARK  135 active torsions:
REMARK  status: ('A' for Active; 'I' for Inactive)
REMARK    1  A    between atoms: _1  and  _3
REMARK    2  A    between atoms: _3  and  _4
REMARK    3  A    between atoms: _7  and  _9
REMARK    4  A    between atoms: _9  and  _10
REMARK    5  A    between atoms: _13  and  _15
REMARK    6  A    between atoms: _15  and  _16
REMARK    7  A    between atoms: _15  and  _18
REMARK    8  A    between atoms: _18  and  _19
REMARK    9  A    between atoms: _19  and  _20
REMARK   10  A    between atoms: _20  and  _21
REMARK   11  A    between atoms: _30  and  _32
REMARK   12  A    between atoms: _32  and  _33
REMARK   13  A    between atoms: _32  and  _35
REMARK   14  A    between atoms: _35  and  _36
REMARK   15  A    between atoms: _39  and  _41
REMARK   16  A    between atoms: _41  and  _42
REMARK   17  A    between atoms: _45  and  _47
REMARK   18  A    between atoms: _47  and  _48
REMARK   19  A    between atoms: _47  and  _50
REMARK   20  A    between atoms: _50  and  _51
REMARK   21  A    between atoms: _51  and  _52
REMARK   22  A    between atoms: _55  and  _57
REMARK   23  A    between atoms: _57  and  _58
REMARK   24  A    between atoms: _57  and  _60
REMARK   25  A    between atoms: _60  and  _61
REMARK   26  A    between atoms: _66  and  _68
REMARK   27  A    between atoms: _68  and  _69
REMARK   28  A    between atoms: _68  and  _71
REMARK   29  A    between atoms: _71  and  _72
REMARK   30  A    between atoms: _72  and  _73
REMARK   31  A    between atoms: _73  and  _74
REMARK   32  A    between atoms: _74  and  _75
REMARK   33  A    between atoms: _79  and  _81
REMARK   34  A    between atoms: _81  and  _82
REMARK   35  A    between atoms: _81  and  _84
REMARK   36  A    between atoms: _84  and  _85
REMARK   37  A    between atoms: _85  and  _86
REMARK   38  A    between atoms: _86  and  _87
REMARK   39  A    between atoms: _96  and  _98
REMARK   40  A    between atoms: _98  and  _99
REMARK   41  A    between atoms: _98  and  _101
REMARK   42  A    between atoms: _101  and  _102
REMARK   43  A    between atoms: _107  and  _109
REMARK   44  A    between atoms: _109  and  _110
REMARK   45  A    between atoms: _109  and  _112
REMARK   46  A    between atoms: _112  and  _113
REMARK   47  A    between atoms: _116  and  _118
REMARK   48  A    between atoms: _118  and  _119
REMARK   49  A    between atoms: _118  and  _121
REMARK   50  A    between atoms: _121  and  _122
REMARK   51  A    between atoms: _132  and  _134
REMARK   52  A    between atoms: _134  and  _135
REMARK   53  A    between atoms: _134  and  _137
REMARK   54  A    between atoms: _137  and  _138
REMARK   55  A    between atoms: _143  and  _145
REMARK   56  A    between atoms: _145  and  _146
REMARK   57  A    between atoms: _145  and  _148
REMARK   58  A    between atoms: _148  and  _149
REMARK   59  A    between atoms: _151  and  _153
REMARK   60  A    between atoms: _153  and  _154
REMARK   61  A    between atoms: _153  and  _156
REMARK   62  A    between atoms: _156  and  _157
REMARK   63  A    between atoms: _157  and  _158
REMARK   64  A    between atoms: _163  and  _165
REMARK   65  A    between atoms: _165  and  _166
REMARK   66  A    between atoms: _165  and  _168
REMARK   67  A    between atoms: _168  and  _169
REMARK   68  A    between atoms: _172  and  _174
REMARK   69  A    between atoms: _174  and  _175
REMARK   70  A    between atoms: _174  and  _177
REMARK   71  A    between atoms: _177  and  _178
REMARK   72  A    between atoms: _183  and  _185
REMARK   73  A    between atoms: _185  and  _186
REMARK   74  A    between atoms: _185  and  _188
REMARK   75  A    between atoms: _188  and  _189
REMARK   76  A    between atoms: _189  and  _190
REMARK   77  A    between atoms: _193  and  _195
REMARK   78  A    between atoms: _195  and  _196
REMARK   79  A    between atoms: _195  and  _198
REMARK   80  A    between atoms: _198  and  _199
REMARK   81  A    between atoms: _204  and  _206
REMARK   82  A    between atoms: _206  and  _207
REMARK   83  A    between atoms: _206  and  _209
REMARK   84  A    between atoms: _209  and  _210
REMARK   85  A    between atoms: _213  and  _215
REMARK   86  A    between atoms: _215  and  _216
REMARK   87  A    between atoms: _215  and  _218
REMARK   88  A    between atoms: _218  and  _219
REMARK   89  A    between atoms: _224  and  _225
REMARK   90  A    between atoms: _227  and  _229
REMARK   91  A    between atoms: _229  and  _230
REMARK   92  A    between atoms: _229  and  _232
REMARK   93  A    between atoms: _232  and  _233
REMARK   94  A    between atoms: _233  and  _234
REMARK   95  A    between atoms: _239  and  _241
REMARK   96  A    between atoms: _241  and  _242
REMARK   97  A    between atoms: _241  and  _244
REMARK   98  A    between atoms: _244  and  _245
REMARK   99  A    between atoms: _250  and  _252
REMARK  100  A    between atoms: _252  and  _253
REMARK  101  A    between atoms: _252  and  _255
REMARK  102  A    between atoms: _255  and  _256
REMARK  103  A    between atoms: _259  and  _261
REMARK  104  A    between atoms: _261  and  _262
REMARK  105  A    between atoms: _261  and  _264
REMARK  106  A    between atoms: _264  and  _265
REMARK  107  A    between atoms: _265  and  _266
REMARK  108  A    between atoms: _269  and  _271
REMARK  109  A    between atoms: _271  and  _272
REMARK  110  A    between atoms: _271  and  _274
REMARK  111  A    between atoms: _274  and  _275
REMARK  112  A    between atoms: _278  and  _280
REMARK  113  A    between atoms: _280  and  _281
REMARK  114  A    between atoms: _280  and  _283
REMARK  115  A    between atoms: _283  and  _284
REMARK  116  A    between atoms: _294  and  _296
REMARK  117  A    between atoms: _296  and  _297
REMARK  118  A    between atoms: _299  and  _301
REMARK  119  A    between atoms: _301  and  _302
REMARK  120  A    between atoms: _301  and  _304
REMARK  121  A    between atoms: _304  and  _305
REMARK  122  A    between atoms: _308  and  _310
REMARK  123  A    between atoms: _310  and  _311
REMARK  124  A    between atoms: _310  and  _313
REMARK  125  A    between atoms: _313  and  _314
REMARK  126  A    between atoms: _316  and  _318
REMARK  127  A    between atoms: _318  and  _319
REMARK  128  A    between atoms: _318  and  _321
REMARK  129  A    between atoms: _321  and  _322
REMARK  130  A    between atoms: _332  and  _334
REMARK  131  A    between atoms: _334  and  _335
REMARK  132  A    between atoms: _334  and  _337
REMARK  133  A    between atoms: _337  and  _338
REMARK  134  A    between atoms: _338  and  _339
REMARK  135  A    between atoms: _339  and  _340
REMARK                            x       y       z     vdW  Elec       q    Type
REMARK                         _______ _______ _______ _____ _____    ______ ____
ROOT
ATOM      1  O   HOH     1       2.734  11.862  24.046  0.00  0.00    +0.000 OA
ENDROOT
TORSDOF 0
REMARK  Name = ../refined-set-2016/1od8/1od8_pocket.pdb
REMARK  135 active torsions:
REMARK  status: ('A' for Active; 'I' for Inactive)
REMARK    1  A    between atoms: _1  and  _3
REMARK    2  A    between atoms: _3  and  _4
REMARK    3  A    between atoms: _7  and  _9
REMARK    4  A    between atoms: _9  and  _10
REMARK    5  A    between atoms: _13  and  _15
REMARK    6  A    between atoms: _15  and  _16
REMARK    7  A    between atoms: _15  and  _18
REMARK    8  A    between atoms: _18  and  _19
REMARK    9  A    between atoms: _19  and  _20
REMARK   10  A    between atoms: _20  and  _21
REMARK   11  A    between atoms: _30  and  _32
REMARK   12  A    between atoms: _32  and  _33
REMARK   13  A    between atoms: _32  and  _35
REMARK   14  A    between atoms: _35  and  _36
REMARK   15  A    between atoms: _39  and  _41
REMARK   16  A    between atoms: _41  and  _42
REMARK   17  A    between atoms: _45  and  _47
REMARK   18  A    between atoms: _47  and  _48
REMARK   19  A    between atoms: _47  and  _50
REMARK   20  A    between atoms: _50  and  _51
REMARK   21  A    between atoms: _51  and  _52
REMARK   22  A    between atoms: _55  and  _57
REMARK   23  A    between atoms: _57  and  _58
REMARK   24  A    between atoms: _57  and  _60
REMARK   25  A    between atoms: _60  and  _61
REMARK   26  A    between atoms: _66  and  _68
REMARK   27  A    between atoms: _68  and  _69
REMARK   28  A    between atoms: _68  and  _71
REMARK   29  A    between atoms: _71  and  _72
REMARK   30  A    between atoms: _72  and  _73
REMARK   31  A    between atoms: _73  and  _74
REMARK   32  A    between atoms: _74  and  _75
REMARK   33  A    between atoms: _79  and  _81
REMARK   34  A    between atoms: _81  and  _82
REMARK   35  A    between atoms: _81  and  _84
REMARK   36  A    between atoms: _84  and  _85
REMARK   37  A    between atoms: _85  and  _86
REMARK   38  A    between atoms: _86  and  _87
REMARK   39  A    between atoms: _96  and  _98
REMARK   40  A    between atoms: _98  and  _99
REMARK   41  A    between atoms: _98  and  _101
REMARK   42  A    between atoms: _101  and  _102
REMARK   43  A    between atoms: _107  and  _109
REMARK   44  A    between atoms: _109  and  _110
REMARK   45  A    between atoms: _109  and  _112
REMARK   46  A    between atoms: _112  and  _113
REMARK   47  A    between atoms: _116  and  _118
REMARK   48  A    between atoms: _118  and  _119
REMARK   49  A    between atoms: _118  and  _121
REMARK   50  A    between atoms: _121  and  _122
REMARK   51  A    between atoms: _132  and  _134
REMARK   52  A    between atoms: _134  and  _135
REMARK   53  A    between atoms: _134  and  _137
REMARK   54  A    between atoms: _137  and  _138
REMARK   55  A    between atoms: _143  and  _145
REMARK   56  A    between atoms: _145  and  _146
REMARK   57  A    between atoms: _145  and  _148
REMARK   58  A    between atoms: _148  and  _149
REMARK   59  A    between atoms: _151  and  _153
REMARK   60  A    between atoms: _153  and  _154
REMARK   61  A    between atoms: _153  and  _156
REMARK   62  A    between atoms: _156  and  _157
REMARK   63  A    between atoms: _157  and  _158
REMARK   64  A    between atoms: _163  and  _165
REMARK   65  A    between atoms: _165  and  _166
REMARK   66  A    between atoms: _165  and  _168
REMARK   67  A    between atoms: _168  and  _169
REMARK   68  A    between atoms: _172  and  _174
REMARK   69  A    between atoms: _174  and  _175
REMARK   70  A    between atoms: _174  and  _177
REMARK   71  A    between atoms: _177  and  _178
REMARK   72  A    between atoms: _183  and  _185
REMARK   73  A    between atoms: _185  and  _186
REMARK   74  A    between atoms: _185  and  _188
REMARK   75  A    between atoms: _188  and  _189
REMARK   76  A    between atoms: _189  and  _190
REMARK   77  A    between atoms: _193  and  _195
REMARK   78  A    between atoms: _195  and  _196
REMARK   79  A    between atoms: _195  and  _198
REMARK   80  A    between atoms: _198  and  _199
REMARK   81  A    between atoms: _204  and  _206
REMARK   82  A    between atoms: _206  and  _207
REMARK   83  A    between atoms: _206  and  _209
REMARK   84  A    between atoms: _209  and  _210
REMARK   85  A    between atoms: _213  and  _215
REMARK   86  A    between atoms: _215  and  _216
REMARK   87  A    between atoms: _215  and  _218
REMARK   88  A    between atoms: _218  and  _219
REMARK   89  A    between atoms: _224  and  _225
REMARK   90  A    between atoms: _227  and  _229
REMARK   91  A    between atoms: _229  and  _230
REMARK   92  A    between atoms: _229  and  _232
REMARK   93  A    between atoms: _232  and  _233
REMARK   94  A    between atoms: _233  and  _234
REMARK   95  A    between atoms: _239  and  _241
REMARK   96  A    between atoms: _241  and  _242
REMARK   97  A    between atoms: _241  and  _244
REMARK   98  A    between atoms: _244  and  _245
REMARK   99  A    between atoms: _250  and  _252
REMARK  100  A    between atoms: _252  and  _253
REMARK  101  A    between atoms: _252  and  _255
REMARK  102  A    between atoms: _255  and  _256
REMARK  103  A    between atoms: _259  and  _261
REMARK  104  A    between atoms: _261  and  _262
REMARK  105  A    between atoms: _261  and  _264
REMARK  106  A    between atoms: _264  and  _265
REMARK  107  A    between atoms: _265  and  _266
REMARK  108  A    between atoms: _269  and  _271
REMARK  109  A    between atoms: _271  and  _272
REMARK  110  A    between atoms: _271  and  _274
REMARK  111  A    between atoms: _274  and  _275
REMARK  112  A    between atoms: _278  and  _280
REMARK  113  A    between atoms: _280  and  _281
REMARK  114  A    between atoms: _280  and  _283
REMARK  115  A    between atoms: _283  and  _284
REMARK  116  A    between atoms: _294  and  _296
REMARK  117  A    between atoms: _296  and  _297
REMARK  118  A    between atoms: _299  and  _301
REMARK  119  A    between atoms: _301  and  _302
REMARK  120  A    between atoms: _301  and  _304
REMARK  121  A    between atoms: _304  and  _305
REMARK  122  A    between atoms: _308  and  _310
REMARK  123  A    between atoms: _310  and  _311
REMARK  124  A    between atoms: _310  and  _313
REMARK  125  A    between atoms: _313  and  _314
REMARK  126  A    between atoms: _316  and  _318
REMARK  127  A    between atoms: _318  and  _319
REMARK  128  A    between atoms: _318  and  _321
REMARK  129  A    between atoms: _321  and  _322
REMARK  130  A    between atoms: _332  and  _334
REMARK  131  A    between atoms: _334  and  _335
REMARK  132  A    between atoms: _334  and  _337
REMARK  133  A    between atoms: _337  and  _338
REMARK  134  A    between atoms: _338  and  _339
REMARK  135  A    between atoms: _339  and  _340
REMARK                            x       y       z     vdW  Elec       q    Type
REMARK                         _______ _______ _______ _____ _____    ______ ____
ROOT
ATOM      1  O   HOH     1       3.900   4.983  21.610  0.00  0.00    +0.000 OA
ENDROOT
TORSDOF 0
REMARK  Name = ../refined-set-2016/1od8/1od8_pocket.pdb
REMARK  135 active torsions:
REMARK  status: ('A' for Active; 'I' for Inactive)
REMARK    1  A    between atoms: _1  and  _3
REMARK    2  A    between atoms: _3  and  _4
REMARK    3  A    between atoms: _7  and  _9
REMARK    4  A    between atoms: _9  and  _10
REMARK    5  A    between atoms: _13  and  _15
REMARK    6  A    between atoms: _15  and  _16
REMARK    7  A    between atoms: _15  and  _18
REMARK    8  A    between atoms: _18  and  _19
REMARK    9  A    between atoms: _19  and  _20
REMARK   10  A    between atoms: _20  and  _21
REMARK   11  A    between atoms: _30  and  _32
REMARK   12  A    between atoms: _32  and  _33
REMARK   13  A    between atoms: _32  and  _35
REMARK   14  A    between atoms: _35  and  _36
REMARK   15  A    between atoms: _39  and  _41
REMARK   16  A    between atoms: _41  and  _42
REMARK   17  A    between atoms: _45  and  _47
REMARK   18  A    between atoms: _47  and  _48
REMARK   19  A    between atoms: _47  and  _50
REMARK   20  A    between atoms: _50  and  _51
REMARK   21  A    between atoms: _51  and  _52
REMARK   22  A    between atoms: _55  and  _57
REMARK   23  A    between atoms: _57  and  _58
REMARK   24  A    between atoms: _57  and  _60
REMARK   25  A    between atoms: _60  and  _61
REMARK   26  A    between atoms: _66  and  _68
REMARK   27  A    between atoms: _68  and  _69
REMARK   28  A    between atoms: _68  and  _71
REMARK   29  A    between atoms: _71  and  _72
REMARK   30  A    between atoms: _72  and  _73
REMARK   31  A    between atoms: _73  and  _74
REMARK   32  A    between atoms: _74  and  _75
REMARK   33  A    between atoms: _79  and  _81
REMARK   34  A    between atoms: _81  and  _82
REMARK   35  A    between atoms: _81  and  _84
REMARK   36  A    between atoms: _84  and  _85
REMARK   37  A    between atoms: _85  and  _86
REMARK   38  A    between atoms: _86  and  _87
REMARK   39  A    between atoms: _96  and  _98
REMARK   40  A    between atoms: _98  and  _99
REMARK   41  A    between atoms: _98  and  _101
REMARK   42  A    between atoms: _101  and  _102
REMARK   43  A    between atoms: _107  and  _109
REMARK   44  A    between atoms: _109  and  _110
REMARK   45  A    between atoms: _109  and  _112
REMARK   46  A    between atoms: _112  and  _113
REMARK   47  A    between atoms: _116  and  _118
REMARK   48  A    between atoms: _118  and  _119
REMARK   49  A    between atoms: _118  and  _121
REMARK   50  A    between atoms: _121  and  _122
REMARK   51  A    between atoms: _132  and  _134
REMARK   52  A    between atoms: _134  and  _135
REMARK   53  A    between atoms: _134  and  _137
REMARK   54  A    between atoms: _137  and  _138
REMARK   55  A    between atoms: _143  and  _145
REMARK   56  A    between atoms: _145  and  _146
REMARK   57  A    between atoms: _145  and  _148
REMARK   58  A    between atoms: _148  and  _149
REMARK   59  A    between atoms: _151  and  _153
REMARK   60  A    between atoms: _153  and  _154
REMARK   61  A    between atoms: _153  and  _156
REMARK   62  A    between atoms: _156  and  _157
REMARK   63  A    between atoms: _157  and  _158
REMARK   64  A    between atoms: _163  and  _165
REMARK   65  A    between atoms: _165  and  _166
REMARK   66  A    between atoms: _165  and  _168
REMARK   67  A    between atoms: _168  and  _169
REMARK   68  A    between atoms: _172  and  _174
REMARK   69  A    between atoms: _174  and  _175
REMARK   70  A    between atoms: _174  and  _177
REMARK   71  A    between atoms: _177  and  _178
REMARK   72  A    between atoms: _183  and  _185
REMARK   73  A    between atoms: _185  and  _186
REMARK   74  A    between atoms: _185  and  _188
REMARK   75  A    between atoms: _188  and  _189
REMARK   76  A    between atoms: _189  and  _190
REMARK   77  A    between atoms: _193  and  _195
REMARK   78  A    between atoms: _195  and  _196
REMARK   79  A    between atoms: _195  and  _198
REMARK   80  A    between atoms: _198  and  _199
REMARK   81  A    between atoms: _204  and  _206
REMARK   82  A    between atoms: _206  and  _207
REMARK   83  A    between atoms: _206  and  _209
REMARK   84  A    between atoms: _209  and  _210
REMARK   85  A    between atoms: _213  and  _215
REMARK   86  A    between atoms: _215  and  _216
REMARK   87  A    between atoms: _215  and  _218
REMARK   88  A    between atoms: _218  and  _219
REMARK   89  A    between atoms: _224  and  _225
REMARK   90  A    between atoms: _227  and  _229
REMARK   91  A    between atoms: _229  and  _230
REMARK   92  A    between atoms: _229  and  _232
REMARK   93  A    between atoms: _232  and  _233
REMARK   94  A    between atoms: _233  and  _234
REMARK   95  A    between atoms: _239  and  _241
REMARK   96  A    between atoms: _241  and  _242
REMARK   97  A    between atoms: _241  and  _244
REMARK   98  A    between atoms: _244  and  _245
REMARK   99  A    between atoms: _250  and  _252
REMARK  100  A    between atoms: _252  and  _253
REMARK  101  A    between atoms: _252  and  _255
REMARK  102  A    between atoms: _255  and  _256
REMARK  103  A    between atoms: _259  and  _261
REMARK  104  A    between atoms: _261  and  _262
REMARK  105  A    between atoms: _261  and  _264
REMARK  106  A    between atoms: _264  and  _265
REMARK  107  A    between atoms: _265  and  _266
REMARK  108  A    between atoms: _269  and  _271
REMARK  109  A    between atoms: _271  and  _272
REMARK  110  A    between atoms: _271  and  _274
REMARK  111  A    between atoms: _274  and  _275
REMARK  112  A    between atoms: _278  and  _280
REMARK  113  A    between atoms: _280  and  _281
REMARK  114  A    between atoms: _280  and  _283
REMARK  115  A    between atoms: _283  and  _284
REMARK  116  A    between atoms: _294  and  _296
REMARK  117  A    between atoms: _296  and  _297
REMARK  118  A    between atoms: _299  and  _301
REMARK  119  A    between atoms: _301  and  _302
REMARK  120  A    between atoms: _301  and  _304
REMARK  121  A    between atoms: _304  and  _305
REMARK  122  A    between atoms: _308  and  _310
REMARK  123  A    between atoms: _310  and  _311
REMARK  124  A    between atoms: _310  and  _313
REMARK  125  A    between atoms: _313  and  _314
REMARK  126  A    between atoms: _316  and  _318
REMARK  127  A    between atoms: _318  and  _319
REMARK  128  A    between atoms: _318  and  _321
REMARK  129  A    between atoms: _321  and  _322
REMARK  130  A    between atoms: _332  and  _334
REMARK  131  A    between atoms: _334  and  _335
REMARK  132  A    between atoms: _334  and  _337
REMARK  133  A    between atoms: _337  and  _338
REMARK  134  A    between atoms: _338  and  _339
REMARK  135  A    between atoms: _339  and  _340
REMARK                            x       y       z     vdW  Elec       q    Type
REMARK                         _______ _______ _______ _____ _____    ______ ____
ROOT
ATOM      1  O   HOH     1       4.242   6.771  16.370  0.00  0.00    +0.000 OA
ENDROOT
TORSDOF 0
REMARK  Name = ../refined-set-2016/1od8/1od8_pocket.pdb
REMARK  135 active torsions:
REMARK  status: ('A' for Active; 'I' for Inactive)
REMARK    1  A    between atoms: _1  and  _3
REMARK    2  A    between atoms: _3  and  _4
REMARK    3  A    between atoms: _7  and  _9
REMARK    4  A    between atoms: _9  and  _10
REMARK    5  A    between atoms: _13  and  _15
REMARK    6  A    between atoms: _15  and  _16
REMARK    7  A    between atoms: _15  and  _18
REMARK    8  A    between atoms: _18  and  _19
REMARK    9  A    between atoms: _19  and  _20
REMARK   10  A    between atoms: _20  and  _21
REMARK   11  A    between atoms: _30  and  _32
REMARK   12  A    between atoms: _32  and  _33
REMARK   13  A    between atoms: _32  and  _35
REMARK   14  A    between atoms: _35  and  _36
REMARK   15  A    between atoms: _39  and  _41
REMARK   16  A    between atoms: _41  and  _42
REMARK   17  A    between atoms: _45  and  _47
REMARK   18  A    between atoms: _47  and  _48
REMARK   19  A    between atoms: _47  and  _50
REMARK   20  A    between atoms: _50  and  _51
REMARK   21  A    between atoms: _51  and  _52
REMARK   22  A    between atoms: _55  and  _57
REMARK   23  A    between atoms: _57  and  _58
REMARK   24  A    between atoms: _57  and  _60
REMARK   25  A    between atoms: _60  and  _61
REMARK   26  A    between atoms: _66  and  _68
REMARK   27  A    between atoms: _68  and  _69
REMARK   28  A    between atoms: _68  and  _71
REMARK   29  A    between atoms: _71  and  _72
REMARK   30  A    between atoms: _72  and  _73
REMARK   31  A    between atoms: _73  and  _74
REMARK   32  A    between atoms: _74  and  _75
REMARK   33  A    between atoms: _79  and  _81
REMARK   34  A    between atoms: _81  and  _82
REMARK   35  A    between atoms: _81  and  _84
REMARK   36  A    between atoms: _84  and  _85
REMARK   37  A    between atoms: _85  and  _86
REMARK   38  A    between atoms: _86  and  _87
REMARK   39  A    between atoms: _96  and  _98
REMARK   40  A    between atoms: _98  and  _99
REMARK   41  A    between atoms: _98  and  _101
REMARK   42  A    between atoms: _101  and  _102
REMARK   43  A    between atoms: _107  and  _109
REMARK   44  A    between atoms: _109  and  _110
REMARK   45  A    between atoms: _109  and  _112
REMARK   46  A    between atoms: _112  and  _113
REMARK   47  A    between atoms: _116  and  _118
REMARK   48  A    between atoms: _118  and  _119
REMARK   49  A    between atoms: _118  and  _121
REMARK   50  A    between atoms: _121  and  _122
REMARK   51  A    between atoms: _132  and  _134
REMARK   52  A    between atoms: _134  and  _135
REMARK   53  A    between atoms: _134  and  _137
REMARK   54  A    between atoms: _137  and  _138
REMARK   55  A    between atoms: _143  and  _145
REMARK   56  A    between atoms: _145  and  _146
REMARK   57  A    between atoms: _145  and  _148
REMARK   58  A    between atoms: _148  and  _149
REMARK   59  A    between atoms: _151  and  _153
REMARK   60  A    between atoms: _153  and  _154
REMARK   61  A    between atoms: _153  and  _156
REMARK   62  A    between atoms: _156  and  _157
REMARK   63  A    between atoms: _157  and  _158
REMARK   64  A    between atoms: _163  and  _165
REMARK   65  A    between atoms: _165  and  _166
REMARK   66  A    between atoms: _165  and  _168
REMARK   67  A    between atoms: _168  and  _169
REMARK   68  A    between atoms: _172  and  _174
REMARK   69  A    between atoms: _174  and  _175
REMARK   70  A    between atoms: _174  and  _177
REMARK   71  A    between atoms: _177  and  _178
REMARK   72  A    between atoms: _183  and  _185
REMARK   73  A    between atoms: _185  and  _186
REMARK   74  A    between atoms: _185  and  _188
REMARK   75  A    between atoms: _188  and  _189
REMARK   76  A    between atoms: _189  and  _190
REMARK   77  A    between atoms: _193  and  _195
REMARK   78  A    between atoms: _195  and  _196
REMARK   79  A    between atoms: _195  and  _198
REMARK   80  A    between atoms: _198  and  _199
REMARK   81  A    between atoms: _204  and  _206
REMARK   82  A    between atoms: _206  and  _207
REMARK   83  A    between atoms: _206  and  _209
REMARK   84  A    between atoms: _209  and  _210
REMARK   85  A    between atoms: _213  and  _215
REMARK   86  A    between atoms: _215  and  _216
REMARK   87  A    between atoms: _215  and  _218
REMARK   88  A    between atoms: _218  and  _219
REMARK   89  A    between atoms: _224  and  _225
REMARK   90  A    between atoms: _227  and  _229
REMARK   91  A    between atoms: _229  and  _230
REMARK   92  A    between atoms: _229  and  _232
REMARK   93  A    between atoms: _232  and  _233
REMARK   94  A    between atoms: _233  and  _234
REMARK   95  A    between atoms: _239  and  _241
REMARK   96  A    between atoms: _241  and  _242
REMARK   97  A    between atoms: _241  and  _244
REMARK   98  A    between atoms: _244  and  _245
REMARK   99  A    between atoms: _250  and  _252
REMARK  100  A    between atoms: _252  and  _253
REMARK  101  A    between atoms: _252  and  _255
REMARK  102  A    between atoms: _255  and  _256
REMARK  103  A    between atoms: _259  and  _261
REMARK  104  A    between atoms: _261  and  _262
REMARK  105  A    between atoms: _261  and  _264
REMARK  106  A    between atoms: _264  and  _265
REMARK  107  A    between atoms: _265  and  _266
REMARK  108  A    between atoms: _269  and  _271
REMARK  109  A    between atoms: _271  and  _272
REMARK  110  A    between atoms: _271  and  _274
REMARK  111  A    between atoms: _274  and  _275
REMARK  112  A    between atoms: _278  and  _280
REMARK  113  A    between atoms: _280  and  _281
REMARK  114  A    between atoms: _280  and  _283
REMARK  115  A    between atoms: _283  and  _284
REMARK  116  A    between atoms: _294  and  _296
REMARK  117  A    between atoms: _296  and  _297
REMARK  118  A    between atoms: _299  and  _301
REMARK  119  A    between atoms: _301  and  _302
REMARK  120  A    between atoms: _301  and  _304
REMARK  121  A    between atoms: _304  and  _305
REMARK  122  A    between atoms: _308  and  _310
REMARK  123  A    between atoms: _310  and  _311
REMARK  124  A    between atoms: _310  and  _313
REMARK  125  A    between atoms: _313  and  _314
REMARK  126  A    between atoms: _316  and  _318
REMARK  127  A    between atoms: _318  and  _319
REMARK  128  A    between atoms: _318  and  _321
REMARK  129  A    between atoms: _321  and  _322
REMARK  130  A    between atoms: _332  and  _334
REMARK  131  A    between atoms: _334  and  _335
REMARK  132  A    between atoms: _334  and  _337
REMARK  133  A    between atoms: _337  and  _338
REMARK  134  A    between atoms: _338  and  _339
REMARK  135  A    between atoms: _339  and  _340
REMARK                            x       y       z     vdW  Elec       q    Type
REMARK                         _______ _______ _______ _____ _____    ______ ____
ROOT
ATOM      1  O   HOH     1       2.029  17.455  16.762  0.00  0.00    +0.000 OA
ENDROOT
TORSDOF 0
REMARK  Name = ../refined-set-2016/1od8/1od8_pocket.pdb
REMARK  135 active torsions:
REMARK  status: ('A' for Active; 'I' for Inactive)
REMARK    1  A    between atoms: _1  and  _3
REMARK    2  A    between atoms: _3  and  _4
REMARK    3  A    between atoms: _7  and  _9
REMARK    4  A    between atoms: _9  and  _10
REMARK    5  A    between atoms: _13  and  _15
REMARK    6  A    between atoms: _15  and  _16
REMARK    7  A    between atoms: _15  and  _18
REMARK    8  A    between atoms: _18  and  _19
REMARK    9  A    between atoms: _19  and  _20
REMARK   10  A    between atoms: _20  and  _21
REMARK   11  A    between atoms: _30  and  _32
REMARK   12  A    between atoms: _32  and  _33
REMARK   13  A    between atoms: _32  and  _35
REMARK   14  A    between atoms: _35  and  _36
REMARK   15  A    between atoms: _39  and  _41
REMARK   16  A    between atoms: _41  and  _42
REMARK   17  A    between atoms: _45  and  _47
REMARK   18  A    between atoms: _47  and  _48
REMARK   19  A    between atoms: _47  and  _50
REMARK   20  A    between atoms: _50  and  _51
REMARK   21  A    between atoms: _51  and  _52
REMARK   22  A    between atoms: _55  and  _57
REMARK   23  A    between atoms: _57  and  _58
REMARK   24  A    between atoms: _57  and  _60
REMARK   25  A    between atoms: _60  and  _61
REMARK   26  A    between atoms: _66  and  _68
REMARK   27  A    between atoms: _68  and  _69
REMARK   28  A    between atoms: _68  and  _71
REMARK   29  A    between atoms: _71  and  _72
REMARK   30  A    between atoms: _72  and  _73
REMARK   31  A    between atoms: _73  and  _74
REMARK   32  A    between atoms: _74  and  _75
REMARK   33  A    between atoms: _79  and  _81
REMARK   34  A    between atoms: _81  and  _82
REMARK   35  A    between atoms: _81  and  _84
REMARK   36  A    between atoms: _84  and  _85
REMARK   37  A    between atoms: _85  and  _86
REMARK   38  A    between atoms: _86  and  _87
REMARK   39  A    between atoms: _96  and  _98
REMARK   40  A    between atoms: _98  and  _99
REMARK   41  A    between atoms: _98  and  _101
REMARK   42  A    between atoms: _101  and  _102
REMARK   43  A    between atoms: _107  and  _109
REMARK   44  A    between atoms: _109  and  _110
REMARK   45  A    between atoms: _109  and  _112
REMARK   46  A    between atoms: _112  and  _113
REMARK   47  A    between atoms: _116  and  _118
REMARK   48  A    between atoms: _118  and  _119
REMARK   49  A    between atoms: _118  and  _121
REMARK   50  A    between atoms: _121  and  _122
REMARK   51  A    between atoms: _132  and  _134
REMARK   52  A    between atoms: _134  and  _135
REMARK   53  A    between atoms: _134  and  _137
REMARK   54  A    between atoms: _137  and  _138
REMARK   55  A    between atoms: _143  and  _145
REMARK   56  A    between atoms: _145  and  _146
REMARK   57  A    between atoms: _145  and  _148
REMARK   58  A    between atoms: _148  and  _149
REMARK   59  A    between atoms: _151  and  _153
REMARK   60  A    between atoms: _153  and  _154
REMARK   61  A    between atoms: _153  and  _156
REMARK   62  A    between atoms: _156  and  _157
REMARK   63  A    between atoms: _157  and  _158
REMARK   64  A    between atoms: _163  and  _165
REMARK   65  A    between atoms: _165  and  _166
REMARK   66  A    between atoms: _165  and  _168
REMARK   67  A    between atoms: _168  and  _169
REMARK   68  A    between atoms: _172  and  _174
REMARK   69  A    between atoms: _174  and  _175
REMARK   70  A    between atoms: _174  and  _177
REMARK   71  A    between atoms: _177  and  _178
REMARK   72  A    between atoms: _183  and  _185
REMARK   73  A    between atoms: _185  and  _186
REMARK   74  A    between atoms: _185  and  _188
REMARK   75  A    between atoms: _188  and  _189
REMARK   76  A    between atoms: _189  and  _190
REMARK   77  A    between atoms: _193  and  _195
REMARK   78  A    between atoms: _195  and  _196
REMARK   79  A    between atoms: _195  and  _198
REMARK   80  A    between atoms: _198  and  _199
REMARK   81  A    between atoms: _204  and  _206
REMARK   82  A    between atoms: _206  and  _207
REMARK   83  A    between atoms: _206  and  _209
REMARK   84  A    between atoms: _209  and  _210
REMARK   85  A    between atoms: _213  and  _215
REMARK   86  A    between atoms: _215  and  _216
REMARK   87  A    between atoms: _215  and  _218
REMARK   88  A    between atoms: _218  and  _219
REMARK   89  A    between atoms: _224  and  _225
REMARK   90  A    between atoms: _227  and  _229
REMARK   91  A    between atoms: _229  and  _230
REMARK   92  A    between atoms: _229  and  _232
REMARK   93  A    between atoms: _232  and  _233
REMARK   94  A    between atoms: _233  and  _234
REMARK   95  A    between atoms: _239  and  _241
REMARK   96  A    between atoms: _241  and  _242
REMARK   97  A    between atoms: _241  and  _244
REMARK   98  A    between atoms: _244  and  _245
REMARK   99  A    between atoms: _250  and  _252
REMARK  100  A    between atoms: _252  and  _253
REMARK  101  A    between atoms: _252  and  _255
REMARK  102  A    between atoms: _255  and  _256
REMARK  103  A    between atoms: _259  and  _261
REMARK  104  A    between atoms: _261  and  _262
REMARK  105  A    between atoms: _261  and  _264
REMARK  106  A    between atoms: _264  and  _265
REMARK  107  A    between atoms: _265  and  _266
REMARK  108  A    between atoms: _269  and  _271
REMARK  109  A    between atoms: _271  and  _272
REMARK  110  A    between atoms: _271  and  _274
REMARK  111  A    between atoms: _274  and  _275
REMARK  112  A    between atoms: _278  and  _280
REMARK  113  A    between atoms: _280  and  _281
REMARK  114  A    between atoms: _280  and  _283
REMARK  115  A    between atoms: _283  and  _284
REMARK  116  A    between atoms: _294  and  _296
REMARK  117  A    between atoms: _296  and  _297
REMARK  118  A    between atoms: _299  and  _301
REMARK  119  A    between atoms: _301  and  _302
REMARK  120  A    between atoms: _301  and  _304
REMARK  121  A    between atoms: _304  and  _305
REMARK  122  A    between atoms: _308  and  _310
REMARK  123  A    between atoms: _310  and  _311
REMARK  124  A    between atoms: _310  and  _313
REMARK  125  A    between atoms: _313  and  _314
REMARK  126  A    between atoms: _316  and  _318
REMARK  127  A    between atoms: _318  and  _319
REMARK  128  A    between atoms: _318  and  _321
REMARK  129  A    between atoms: _321  and  _322
REMARK  130  A    between atoms: _332  and  _334
REMARK  131  A    between atoms: _334  and  _335
REMARK  132  A    between atoms: _334  and  _337
REMARK  133  A    between atoms: _337  and  _338
REMARK  134  A    between atoms: _338  and  _339
REMARK  135  A    between atoms: _339  and  _340
REMARK                            x       y       z     vdW  Elec       q    Type
REMARK                         _______ _______ _______ _____ _____    ______ ____
ROOT
ATOM      1  O   HOH     1       6.024  18.301  14.807  0.00  0.00    +0.000 OA
ENDROOT
TORSDOF 0
REMARK  Name = ../refined-set-2016/1od8/1od8_pocket.pdb
REMARK  135 active torsions:
REMARK  status: ('A' for Active; 'I' for Inactive)
REMARK    1  A    between atoms: _1  and  _3
REMARK    2  A    between atoms: _3  and  _4
REMARK    3  A    between atoms: _7  and  _9
REMARK    4  A    between atoms: _9  and  _10
REMARK    5  A    between atoms: _13  and  _15
REMARK    6  A    between atoms: _15  and  _16
REMARK    7  A    between atoms: _15  and  _18
REMARK    8  A    between atoms: _18  and  _19
REMARK    9  A    between atoms: _19  and  _20
REMARK   10  A    between atoms: _20  and  _21
REMARK   11  A    between atoms: _30  and  _32
REMARK   12  A    between atoms: _32  and  _33
REMARK   13  A    between atoms: _32  and  _35
REMARK   14  A    between atoms: _35  and  _36
REMARK   15  A    between atoms: _39  and  _41
REMARK   16  A    between atoms: _41  and  _42
REMARK   17  A    between atoms: _45  and  _47
REMARK   18  A    between atoms: _47  and  _48
REMARK   19  A    between atoms: _47  and  _50
REMARK   20  A    between atoms: _50  and  _51
REMARK   21  A    between atoms: _51  and  _52
REMARK   22  A    between atoms: _55  and  _57
REMARK   23  A    between atoms: _57  and  _58
REMARK   24  A    between atoms: _57  and  _60
REMARK   25  A    between atoms: _60  and  _61
REMARK   26  A    between atoms: _66  and  _68
REMARK   27  A    between atoms: _68  and  _69
REMARK   28  A    between atoms: _68  and  _71
REMARK   29  A    between atoms: _71  and  _72
REMARK   30  A    between atoms: _72  and  _73
REMARK   31  A    between atoms: _73  and  _74
REMARK   32  A    between atoms: _74  and  _75
REMARK   33  A    between atoms: _79  and  _81
REMARK   34  A    between atoms: _81  and  _82
REMARK   35  A    between atoms: _81  and  _84
REMARK   36  A    between atoms: _84  and  _85
REMARK   37  A    between atoms: _85  and  _86
REMARK   38  A    between atoms: _86  and  _87
REMARK   39  A    between atoms: _96  and  _98
REMARK   40  A    between atoms: _98  and  _99
REMARK   41  A    between atoms: _98  and  _101
REMARK   42  A    between atoms: _101  and  _102
REMARK   43  A    between atoms: _107  and  _109
REMARK   44  A    between atoms: _109  and  _110
REMARK   45  A    between atoms: _109  and  _112
REMARK   46  A    between atoms: _112  and  _113
REMARK   47  A    between atoms: _116  and  _118
REMARK   48  A    between atoms: _118  and  _119
REMARK   49  A    between atoms: _118  and  _121
REMARK   50  A    between atoms: _121  and  _122
REMARK   51  A    between atoms: _132  and  _134
REMARK   52  A    between atoms: _134  and  _135
REMARK   53  A    between atoms: _134  and  _137
REMARK   54  A    between atoms: _137  and  _138
REMARK   55  A    between atoms: _143  and  _145
REMARK   56  A    between atoms: _145  and  _146
REMARK   57  A    between atoms: _145  and  _148
REMARK   58  A    between atoms: _148  and  _149
REMARK   59  A    between atoms: _151  and  _153
REMARK   60  A    between atoms: _153  and  _154
REMARK   61  A    between atoms: _153  and  _156
REMARK   62  A    between atoms: _156  and  _157
REMARK   63  A    between atoms: _157  and  _158
REMARK   64  A    between atoms: _163  and  _165
REMARK   65  A    between atoms: _165  and  _166
REMARK   66  A    between atoms: _165  and  _168
REMARK   67  A    between atoms: _168  and  _169
REMARK   68  A    between atoms: _172  and  _174
REMARK   69  A    between atoms: _174  and  _175
REMARK   70  A    between atoms: _174  and  _177
REMARK   71  A    between atoms: _177  and  _178
REMARK   72  A    between atoms: _183  and  _185
REMARK   73  A    between atoms: _185  and  _186
REMARK   74  A    between atoms: _185  and  _188
REMARK   75  A    between atoms: _188  and  _189
REMARK   76  A    between atoms: _189  and  _190
REMARK   77  A    between atoms: _193  and  _195
REMARK   78  A    between atoms: _195  and  _196
REMARK   79  A    between atoms: _195  and  _198
REMARK   80  A    between atoms: _198  and  _199
REMARK   81  A    between atoms: _204  and  _206
REMARK   82  A    between atoms: _206  and  _207
REMARK   83  A    between atoms: _206  and  _209
REMARK   84  A    between atoms: _209  and  _210
REMARK   85  A    between atoms: _213  and  _215
REMARK   86  A    between atoms: _215  and  _216
REMARK   87  A    between atoms: _215  and  _218
REMARK   88  A    between atoms: _218  and  _219
REMARK   89  A    between atoms: _224  and  _225
REMARK   90  A    between atoms: _227  and  _229
REMARK   91  A    between atoms: _229  and  _230
REMARK   92  A    between atoms: _229  and  _232
REMARK   93  A    between atoms: _232  and  _233
REMARK   94  A    between atoms: _233  and  _234
REMARK   95  A    between atoms: _239  and  _241
REMARK   96  A    between atoms: _241  and  _242
REMARK   97  A    between atoms: _241  and  _244
REMARK   98  A    between atoms: _244  and  _245
REMARK   99  A    between atoms: _250  and  _252
REMARK  100  A    between atoms: _252  and  _253
REMARK  101  A    between atoms: _252  and  _255
REMARK  102  A    between atoms: _255  and  _256
REMARK  103  A    between atoms: _259  and  _261
REMARK  104  A    between atoms: _261  and  _262
REMARK  105  A    between atoms: _261  and  _264
REMARK  106  A    between atoms: _264  and  _265
REMARK  107  A    between atoms: _265  and  _266
REMARK  108  A    between atoms: _269  and  _271
REMARK  109  A    between atoms: _271  and  _272
REMARK  110  A    between atoms: _271  and  _274
REMARK  111  A    between atoms: _274  and  _275
REMARK  112  A    between atoms: _278  and  _280
REMARK  113  A    between atoms: _280  and  _281
REMARK  114  A    between atoms: _280  and  _283
REMARK  115  A    between atoms: _283  and  _284
REMARK  116  A    between atoms: _294  and  _296
REMARK  117  A    between atoms: _296  and  _297
REMARK  118  A    between atoms: _299  and  _301
REMARK  119  A    between atoms: _301  and  _302
REMARK  120  A    between atoms: _301  and  _304
REMARK  121  A    between atoms: _304  and  _305
REMARK  122  A    between atoms: _308  and  _310
REMARK  123  A    between atoms: _310  and  _311
REMARK  124  A    between atoms: _310  and  _313
REMARK  125  A    between atoms: _313  and  _314
REMARK  126  A    between atoms: _316  and  _318
REMARK  127  A    between atoms: _318  and  _319
REMARK  128  A    between atoms: _318  and  _321
REMARK  129  A    between atoms: _321  and  _322
REMARK  130  A    between atoms: _332  and  _334
REMARK  131  A    between atoms: _334  and  _335
REMARK  132  A    between atoms: _334  and  _337
REMARK  133  A    between atoms: _337  and  _338
REMARK  134  A    between atoms: _338  and  _339
REMARK  135  A    between atoms: _339  and  _340
REMARK                            x       y       z     vdW  Elec       q    Type
REMARK                         _______ _______ _______ _____ _____    ______ ____
ROOT
ATOM      1  O   HOH     1       0.213  18.264  18.817  0.00  0.00    +0.000 OA
ENDROOT
TORSDOF 0
REMARK  Name = ../refined-set-2016/1od8/1od8_pocket.pdb
REMARK  135 active torsions:
REMARK  status: ('A' for Active; 'I' for Inactive)
REMARK    1  A    between atoms: _1  and  _3
REMARK    2  A    between atoms: _3  and  _4
REMARK    3  A    between atoms: _7  and  _9
REMARK    4  A    between atoms: _9  and  _10
REMARK    5  A    between atoms: _13  and  _15
REMARK    6  A    between atoms: _15  and  _16
REMARK    7  A    between atoms: _15  and  _18
REMARK    8  A    between atoms: _18  and  _19
REMARK    9  A    between atoms: _19  and  _20
REMARK   10  A    between atoms: _20  and  _21
REMARK   11  A    between atoms: _30  and  _32
REMARK   12  A    between atoms: _32  and  _33
REMARK   13  A    between atoms: _32  and  _35
REMARK   14  A    between atoms: _35  and  _36
REMARK   15  A    between atoms: _39  and  _41
REMARK   16  A    between atoms: _41  and  _42
REMARK   17  A    between atoms: _45  and  _47
REMARK   18  A    between atoms: _47  and  _48
REMARK   19  A    between atoms: _47  and  _50
REMARK   20  A    between atoms: _50  and  _51
REMARK   21  A    between atoms: _51  and  _52
REMARK   22  A    between atoms: _55  and  _57
REMARK   23  A    between atoms: _57  and  _58
REMARK   24  A    between atoms: _57  and  _60
REMARK   25  A    between atoms: _60  and  _61
REMARK   26  A    between atoms: _66  and  _68
REMARK   27  A    between atoms: _68  and  _69
REMARK   28  A    between atoms: _68  and  _71
REMARK   29  A    between atoms: _71  and  _72
REMARK   30  A    between atoms: _72  and  _73
REMARK   31  A    between atoms: _73  and  _74
REMARK   32  A    between atoms: _74  and  _75
REMARK   33  A    between atoms: _79  and  _81
REMARK   34  A    between atoms: _81  and  _82
REMARK   35  A    between atoms: _81  and  _84
REMARK   36  A    between atoms: _84  and  _85
REMARK   37  A    between atoms: _85  and  _86
REMARK   38  A    between atoms: _86  and  _87
REMARK   39  A    between atoms: _96  and  _98
REMARK   40  A    between atoms: _98  and  _99
REMARK   41  A    between atoms: _98  and  _101
REMARK   42  A    between atoms: _101  and  _102
REMARK   43  A    between atoms: _107  and  _109
REMARK   44  A    between atoms: _109  and  _110
REMARK   45  A    between atoms: _109  and  _112
REMARK   46  A    between atoms: _112  and  _113
REMARK   47  A    between atoms: _116  and  _118
REMARK   48  A    between atoms: _118  and  _119
REMARK   49  A    between atoms: _118  and  _121
REMARK   50  A    between atoms: _121  and  _122
REMARK   51  A    between atoms: _132  and  _134
REMARK   52  A    between atoms: _134  and  _135
REMARK   53  A    between atoms: _134  and  _137
REMARK   54  A    between atoms: _137  and  _138
REMARK   55  A    between atoms: _143  and  _145
REMARK   56  A    between atoms: _145  and  _146
REMARK   57  A    between atoms: _145  and  _148
REMARK   58  A    between atoms: _148  and  _149
REMARK   59  A    between atoms: _151  and  _153
REMARK   60  A    between atoms: _153  and  _154
REMARK   61  A    between atoms: _153  and  _156
REMARK   62  A    between atoms: _156  and  _157
REMARK   63  A    between atoms: _157  and  _158
REMARK   64  A    between atoms: _163  and  _165
REMARK   65  A    between atoms: _165  and  _166
REMARK   66  A    between atoms: _165  and  _168
REMARK   67  A    between atoms: _168  and  _169
REMARK   68  A    between atoms: _172  and  _174
REMARK   69  A    between atoms: _174  and  _175
REMARK   70  A    between atoms: _174  and  _177
REMARK   71  A    between atoms: _177  and  _178
REMARK   72  A    between atoms: _183  and  _185
REMARK   73  A    between atoms: _185  and  _186
REMARK   74  A    between atoms: _185  and  _188
REMARK   75  A    between atoms: _188  and  _189
REMARK   76  A    between atoms: _189  and  _190
REMARK   77  A    between atoms: _193  and  _195
REMARK   78  A    between atoms: _195  and  _196
REMARK   79  A    between atoms: _195  and  _198
REMARK   80  A    between atoms: _198  and  _199
REMARK   81  A    between atoms: _204  and  _206
REMARK   82  A    between atoms: _206  and  _207
REMARK   83  A    between atoms: _206  and  _209
REMARK   84  A    between atoms: _209  and  _210
REMARK   85  A    between atoms: _213  and  _215
REMARK   86  A    between atoms: _215  and  _216
REMARK   87  A    between atoms: _215  and  _218
REMARK   88  A    between atoms: _218  and  _219
REMARK   89  A    between atoms: _224  and  _225
REMARK   90  A    between atoms: _227  and  _229
REMARK   91  A    between atoms: _229  and  _230
REMARK   92  A    between atoms: _229  and  _232
REMARK   93  A    between atoms: _232  and  _233
REMARK   94  A    between atoms: _233  and  _234
REMARK   95  A    between atoms: _239  and  _241
REMARK   96  A    between atoms: _241  and  _242
REMARK   97  A    between atoms: _241  and  _244
REMARK   98  A    between atoms: _244  and  _245
REMARK   99  A    between atoms: _250  and  _252
REMARK  100  A    between atoms: _252  and  _253
REMARK  101  A    between atoms: _252  and  _255
REMARK  102  A    between atoms: _255  and  _256
REMARK  103  A    between atoms: _259  and  _261
REMARK  104  A    between atoms: _261  and  _262
REMARK  105  A    between atoms: _261  and  _264
REMARK  106  A    between atoms: _264  and  _265
REMARK  107  A    between atoms: _265  and  _266
REMARK  108  A    between atoms: _269  and  _271
REMARK  109  A    between atoms: _271  and  _272
REMARK  110  A    between atoms: _271  and  _274
REMARK  111  A    between atoms: _274  and  _275
REMARK  112  A    between atoms: _278  and  _280
REMARK  113  A    between atoms: _280  and  _281
REMARK  114  A    between atoms: _280  and  _283
REMARK  115  A    between atoms: _283  and  _284
REMARK  116  A    between atoms: _294  and  _296
REMARK  117  A    between atoms: _296  and  _297
REMARK  118  A    between atoms: _299  and  _301
REMARK  119  A    between atoms: _301  and  _302
REMARK  120  A    between atoms: _301  and  _304
REMARK  121  A    between atoms: _304  and  _305
REMARK  122  A    between atoms: _308  and  _310
REMARK  123  A    between atoms: _310  and  _311
REMARK  124  A    between atoms: _310  and  _313
REMARK  125  A    between atoms: _313  and  _314
REMARK  126  A    between atoms: _316  and  _318
REMARK  127  A    between atoms: _318  and  _319
REMARK  128  A    between atoms: _318  and  _321
REMARK  129  A    between atoms: _321  and  _322
REMARK  130  A    between atoms: _332  and  _334
REMARK  131  A    between atoms: _334  and  _335
REMARK  132  A    between atoms: _334  and  _337
REMARK  133  A    between atoms: _337  and  _338
REMARK  134  A    between atoms: _338  and  _339
REMARK  135  A    between atoms: _339  and  _340
REMARK                            x       y       z     vdW  Elec       q    Type
REMARK                         _______ _______ _______ _____ _____    ______ ____
ROOT
ATOM      1  O   UNL     1       7.302   5.325  15.037  0.00  0.00    +0.000 OA
ATOM      2  O   UNL     1       8.210   5.776  14.601  0.00  0.00    +0.000 OA
ENDROOT
TORSDOF 0
REMARK  Name = ../refined-set-2016/1od8/1od8_pocket.pdb
REMARK  135 active torsions:
REMARK  status: ('A' for Active; 'I' for Inactive)
REMARK    1  A    between atoms: _1  and  _3
REMARK    2  A    between atoms: _3  and  _4
REMARK    3  A    between atoms: _7  and  _9
REMARK    4  A    between atoms: _9  and  _10
REMARK    5  A    between atoms: _13  and  _15
REMARK    6  A    between atoms: _15  and  _16
REMARK    7  A    between atoms: _15  and  _18
REMARK    8  A    between atoms: _18  and  _19
REMARK    9  A    between atoms: _19  and  _20
REMARK   10  A    between atoms: _20  and  _21
REMARK   11  A    between atoms: _30  and  _32
REMARK   12  A    between atoms: _32  and  _33
REMARK   13  A    between atoms: _32  and  _35
REMARK   14  A    between atoms: _35  and  _36
REMARK   15  A    between atoms: _39  and  _41
REMARK   16  A    between atoms: _41  and  _42
REMARK   17  A    between atoms: _45  and  _47
REMARK   18  A    between atoms: _47  and  _48
REMARK   19  A    between atoms: _47  and  _50
REMARK   20  A    between atoms: _50  and  _51
REMARK   21  A    between atoms: _51  and  _52
REMARK   22  A    between atoms: _55  and  _57
REMARK   23  A    between atoms: _57  and  _58
REMARK   24  A    between atoms: _57  and  _60
REMARK   25  A    between atoms: _60  and  _61
REMARK   26  A    between atoms: _66  and  _68
REMARK   27  A    between atoms: _68  and  _69
REMARK   28  A    between atoms: _68  and  _71
REMARK   29  A    between atoms: _71  and  _72
REMARK   30  A    between atoms: _72  and  _73
REMARK   31  A    between atoms: _73  and  _74
REMARK   32  A    between atoms: _74  and  _75
REMARK   33  A    between atoms: _79  and  _81
REMARK   34  A    between atoms: _81  and  _82
REMARK   35  A    between atoms: _81  and  _84
REMARK   36  A    between atoms: _84  and  _85
REMARK   37  A    between atoms: _85  and  _86
REMARK   38  A    between atoms: _86  and  _87
REMARK   39  A    between atoms: _96  and  _98
REMARK   40  A    between atoms: _98  and  _99
REMARK   41  A    between atoms: _98  and  _101
REMARK   42  A    between atoms: _101  and  _102
REMARK   43  A    between atoms: _107  and  _109
REMARK   44  A    between atoms: _109  and  _110
REMARK   45  A    between atoms: _109  and  _112
REMARK   46  A    between atoms: _112  and  _113
REMARK   47  A    between atoms: _116  and  _118
REMARK   48  A    between atoms: _118  and  _119
REMARK   49  A    between atoms: _118  and  _121
REMARK   50  A    between atoms: _121  and  _122
REMARK   51  A    between atoms: _132  and  _134
REMARK   52  A    between atoms: _134  and  _135
REMARK   53  A    between atoms: _134  and  _137
REMARK   54  A    between atoms: _137  and  _138
REMARK   55  A    between atoms: _143  and  _145
REMARK   56  A    between atoms: _145  and  _146
REMARK   57  A    between atoms: _145  and  _148
REMARK   58  A    between atoms: _148  and  _149
REMARK   59  A    between atoms: _151  and  _153
REMARK   60  A    between atoms: _153  and  _154
REMARK   61  A    between atoms: _153  and  _156
REMARK   62  A    between atoms: _156  and  _157
REMARK   63  A    between atoms: _157  and  _158
REMARK   64  A    between atoms: _163  and  _165
REMARK   65  A    between atoms: _165  and  _166
REMARK   66  A    between atoms: _165  and  _168
REMARK   67  A    between atoms: _168  and  _169
REMARK   68  A    between atoms: _172  and  _174
REMARK   69  A    between atoms: _174  and  _175
REMARK   70  A    between atoms: _174  and  _177
REMARK   71  A    between atoms: _177  and  _178
REMARK   72  A    between atoms: _183  and  _185
REMARK   73  A    between atoms: _185  and  _186
REMARK   74  A    between atoms: _185  and  _188
REMARK   75  A    between atoms: _188  and  _189
REMARK   76  A    between atoms: _189  and  _190
REMARK   77  A    between atoms: _193  and  _195
REMARK   78  A    between atoms: _195  and  _196
REMARK   79  A    between atoms: _195  and  _198
REMARK   80  A    between atoms: _198  and  _199
REMARK   81  A    between atoms: _204  and  _206
REMARK   82  A    between atoms: _206  and  _207
REMARK   83  A    between atoms: _206  and  _209
REMARK   84  A    between atoms: _209  and  _210
REMARK   85  A    between atoms: _213  and  _215
REMARK   86  A    between atoms: _215  and  _216
REMARK   87  A    between atoms: _215  and  _218
REMARK   88  A    between atoms: _218  and  _219
REMARK   89  A    between atoms: _224  and  _225
REMARK   90  A    between atoms: _227  and  _229
REMARK   91  A    between atoms: _229  and  _230
REMARK   92  A    between atoms: _229  and  _232
REMARK   93  A    between atoms: _232  and  _233
REMARK   94  A    between atoms: _233  and  _234
REMARK   95  A    between atoms: _239  and  _241
REMARK   96  A    between atoms: _241  and  _242
REMARK   97  A    between atoms: _241  and  _244
REMARK   98  A    between atoms: _244  and  _245
REMARK   99  A    between atoms: _250  and  _252
REMARK  100  A    between atoms: _252  and  _253
REMARK  101  A    between atoms: _252  and  _255
REMARK  102  A    between atoms: _255  and  _256
REMARK  103  A    between atoms: _259  and  _261
REMARK  104  A    between atoms: _261  and  _262
REMARK  105  A    between atoms: _261  and  _264
REMARK  106  A    between atoms: _264  and  _265
REMARK  107  A    between atoms: _265  and  _266
REMARK  108  A    between atoms: _269  and  _271
REMARK  109  A    between atoms: _271  and  _272
REMARK  110  A    between atoms: _271  and  _274
REMARK  111  A    between atoms: _274  and  _275
REMARK  112  A    between atoms: _278  and  _280
REMARK  113  A    between atoms: _280  and  _281
REMARK  114  A    between atoms: _280  and  _283
REMARK  115  A    between atoms: _283  and  _284
REMARK  116  A    between atoms: _294  and  _296
REMARK  117  A    between atoms: _296  and  _297
REMARK  118  A    between atoms: _299  and  _301
REMARK  119  A    between atoms: _301  and  _302
REMARK  120  A    between atoms: _301  and  _304
REMARK  121  A    between atoms: _304  and  _305
REMARK  122  A    between atoms: _308  and  _310
REMARK  123  A    between atoms: _310  and  _311
REMARK  124  A    between atoms: _310  and  _313
REMARK  125  A    between atoms: _313  and  _314
REMARK  126  A    between atoms: _316  and  _318
REMARK  127  A    between atoms: _318  and  _319
REMARK  128  A    between atoms: _318  and  _321
REMARK  129  A    between atoms: _321  and  _322
REMARK  130  A    between atoms: _332  and  _334
REMARK  131  A    between atoms: _334  and  _335
REMARK  132  A    between atoms: _334  and  _337
REMARK  133  A    between atoms: _337  and  _338
REMARK  134  A    between atoms: _338  and  _339
REMARK  135  A    between atoms: _339  and  _340
REMARK                            x       y       z     vdW  Elec       q    Type
REMARK                         _______ _______ _______ _____ _____    ______ ____
ROOT
ATOM      1  O   HOH     1       5.110   7.396  18.460  0.00  0.00    +0.000 OA
ENDROOT
TORSDOF 0
REMARK  Name = ../refined-set-2016/1od8/1od8_pocket.pdb
REMARK  135 active torsions:
REMARK  status: ('A' for Active; 'I' for Inactive)
REMARK    1  A    between atoms: _1  and  _3
REMARK    2  A    between atoms: _3  and  _4
REMARK    3  A    between atoms: _7  and  _9
REMARK    4  A    between atoms: _9  and  _10
REMARK    5  A    between atoms: _13  and  _15
REMARK    6  A    between atoms: _15  and  _16
REMARK    7  A    between atoms: _15  and  _18
REMARK    8  A    between atoms: _18  and  _19
REMARK    9  A    between atoms: _19  and  _20
REMARK   10  A    between atoms: _20  and  _21
REMARK   11  A    between atoms: _30  and  _32
REMARK   12  A    between atoms: _32  and  _33
REMARK   13  A    between atoms: _32  and  _35
REMARK   14  A    between atoms: _35  and  _36
REMARK   15  A    between atoms: _39  and  _41
REMARK   16  A    between atoms: _41  and  _42
REMARK   17  A    between atoms: _45  and  _47
REMARK   18  A    between atoms: _47  and  _48
REMARK   19  A    between atoms: _47  and  _50
REMARK   20  A    between atoms: _50  and  _51
REMARK   21  A    between atoms: _51  and  _52
REMARK   22  A    between atoms: _55  and  _57
REMARK   23  A    between atoms: _57  and  _58
REMARK   24  A    between atoms: _57  and  _60
REMARK   25  A    between atoms: _60  and  _61
REMARK   26  A    between atoms: _66  and  _68
REMARK   27  A    between atoms: _68  and  _69
REMARK   28  A    between atoms: _68  and  _71
REMARK   29  A    between atoms: _71  and  _72
REMARK   30  A    between atoms: _72  and  _73
REMARK   31  A    between atoms: _73  and  _74
REMARK   32  A    between atoms: _74  and  _75
REMARK   33  A    between atoms: _79  and  _81
REMARK   34  A    between atoms: _81  and  _82
REMARK   35  A    between atoms: _81  and  _84
REMARK   36  A    between atoms: _84  and  _85
REMARK   37  A    between atoms: _85  and  _86
REMARK   38  A    between atoms: _86  and  _87
REMARK   39  A    between atoms: _96  and  _98
REMARK   40  A    between atoms: _98  and  _99
REMARK   41  A    between atoms: _98  and  _101
REMARK   42  A    between atoms: _101  and  _102
REMARK   43  A    between atoms: _107  and  _109
REMARK   44  A    between atoms: _109  and  _110
REMARK   45  A    between atoms: _109  and  _112
REMARK   46  A    between atoms: _112  and  _113
REMARK   47  A    between atoms: _116  and  _118
REMARK   48  A    between atoms: _118  and  _119
REMARK   49  A    between atoms: _118  and  _121
REMARK   50  A    between atoms: _121  and  _122
REMARK   51  A    between atoms: _132  and  _134
REMARK   52  A    between atoms: _134  and  _135
REMARK   53  A    between atoms: _134  and  _137
REMARK   54  A    between atoms: _137  and  _138
REMARK   55  A    between atoms: _143  and  _145
REMARK   56  A    between atoms: _145  and  _146
REMARK   57  A    between atoms: _145  and  _148
REMARK   58  A    between atoms: _148  and  _149
REMARK   59  A    between atoms: _151  and  _153
REMARK   60  A    between atoms: _153  and  _154
REMARK   61  A    between atoms: _153  and  _156
REMARK   62  A    between atoms: _156  and  _157
REMARK   63  A    between atoms: _157  and  _158
REMARK   64  A    between atoms: _163  and  _165
REMARK   65  A    between atoms: _165  and  _166
REMARK   66  A    between atoms: _165  and  _168
REMARK   67  A    between atoms: _168  and  _169
REMARK   68  A    between atoms: _172  and  _174
REMARK   69  A    between atoms: _174  and  _175
REMARK   70  A    between atoms: _174  and  _177
REMARK   71  A    between atoms: _177  and  _178
REMARK   72  A    between atoms: _183  and  _185
REMARK   73  A    between atoms: _185  and  _186
REMARK   74  A    between atoms: _185  and  _188
REMARK   75  A    between atoms: _188  and  _189
REMARK   76  A    between atoms: _189  and  _190
REMARK   77  A    between atoms: _193  and  _195
REMARK   78  A    between atoms: _195  and  _196
REMARK   79  A    between atoms: _195  and  _198
REMARK   80  A    between atoms: _198  and  _199
REMARK   81  A    between atoms: _204  and  _206
REMARK   82  A    between atoms: _206  and  _207
REMARK   83  A    between atoms: _206  and  _209
REMARK   84  A    between atoms: _209  and  _210
REMARK   85  A    between atoms: _213  and  _215
REMARK   86  A    between atoms: _215  and  _216
REMARK   87  A    between atoms: _215  and  _218
REMARK   88  A    between atoms: _218  and  _219
REMARK   89  A    between atoms: _224  and  _225
REMARK   90  A    between atoms: _227  and  _229
REMARK   91  A    between atoms: _229  and  _230
REMARK   92  A    between atoms: _229  and  _232
REMARK   93  A    between atoms: _232  and  _233
REMARK   94  A    between atoms: _233  and  _234
REMARK   95  A    between atoms: _239  and  _241
REMARK   96  A    between atoms: _241  and  _242
REMARK   97  A    between atoms: _241  and  _244
REMARK   98  A    between atoms: _244  and  _245
REMARK   99  A    between atoms: _250  and  _252
REMARK  100  A    between atoms: _252  and  _253
REMARK  101  A    between atoms: _252  and  _255
REMARK  102  A    between atoms: _255  and  _256
REMARK  103  A    between atoms: _259  and  _261
REMARK  104  A    between atoms: _261  and  _262
REMARK  105  A    between atoms: _261  and  _264
REMARK  106  A    between atoms: _264  and  _265
REMARK  107  A    between atoms: _265  and  _266
REMARK  108  A    between atoms: _269  and  _271
REMARK  109  A    between atoms: _271  and  _272
REMARK  110  A    between atoms: _271  and  _274
REMARK  111  A    between atoms: _274  and  _275
REMARK  112  A    between atoms: _278  and  _280
REMARK  113  A    between atoms: _280  and  _281
REMARK  114  A    between atoms: _280  and  _283
REMARK  115  A    between atoms: _283  and  _284
REMARK  116  A    between atoms: _294  and  _296
REMARK  117  A    between atoms: _296  and  _297
REMARK  118  A    between atoms: _299  and  _301
REMARK  119  A    between atoms: _301  and  _302
REMARK  120  A    between atoms: _301  and  _304
REMARK  121  A    between atoms: _304  and  _305
REMARK  122  A    between atoms: _308  and  _310
REMARK  123  A    between atoms: _310  and  _311
REMARK  124  A    between atoms: _310  and  _313
REMARK  125  A    between atoms: _313  and  _314
REMARK  126  A    between atoms: _316  and  _318
REMARK  127  A    between atoms: _318  and  _319
REMARK  128  A    between atoms: _318  and  _321
REMARK  129  A    between atoms: _321  and  _322
REMARK  130  A    between atoms: _332  and  _334
REMARK  131  A    between atoms: _334  and  _335
REMARK  132  A    between atoms: _334  and  _337
REMARK  133  A    between atoms: _337  and  _338
REMARK  134  A    between atoms: _338  and  _339
REMARK  135  A    between atoms: _339  and  _340
REMARK                            x       y       z     vdW  Elec       q    Type
REMARK                         _______ _______ _______ _____ _____    ______ ____
ROOT
ATOM      1  O   HOH     1       8.211   8.865  12.597  0.00  0.00    +0.000 OA
ENDROOT
TORSDOF 0
REMARK  Name = ../refined-set-2016/1od8/1od8_pocket.pdb
REMARK  135 active torsions:
REMARK  status: ('A' for Active; 'I' for Inactive)
REMARK    1  A    between atoms: _1  and  _3
REMARK    2  A    between atoms: _3  and  _4
REMARK    3  A    between atoms: _7  and  _9
REMARK    4  A    between atoms: _9  and  _10
REMARK    5  A    between atoms: _13  and  _15
REMARK    6  A    between atoms: _15  and  _16
REMARK    7  A    between atoms: _15  and  _18
REMARK    8  A    between atoms: _18  and  _19
REMARK    9  A    between atoms: _19  and  _20
REMARK   10  A    between atoms: _20  and  _21
REMARK   11  A    between atoms: _30  and  _32
REMARK   12  A    between atoms: _32  and  _33
REMARK   13  A    between atoms: _32  and  _35
REMARK   14  A    between atoms: _35  and  _36
REMARK   15  A    between atoms: _39  and  _41
REMARK   16  A    between atoms: _41  and  _42
REMARK   17  A    between atoms: _45  and  _47
REMARK   18  A    between atoms: _47  and  _48
REMARK   19  A    between atoms: _47  and  _50
REMARK   20  A    between atoms: _50  and  _51
REMARK   21  A    between atoms: _51  and  _52
REMARK   22  A    between atoms: _55  and  _57
REMARK   23  A    between atoms: _57  and  _58
REMARK   24  A    between atoms: _57  and  _60
REMARK   25  A    between atoms: _60  and  _61
REMARK   26  A    between atoms: _66  and  _68
REMARK   27  A    between atoms: _68  and  _69
REMARK   28  A    between atoms: _68  and  _71
REMARK   29  A    between atoms: _71  and  _72
REMARK   30  A    between atoms: _72  and  _73
REMARK   31  A    between atoms: _73  and  _74
REMARK   32  A    between atoms: _74  and  _75
REMARK   33  A    between atoms: _79  and  _81
REMARK   34  A    between atoms: _81  and  _82
REMARK   35  A    between atoms: _81  and  _84
REMARK   36  A    between atoms: _84  and  _85
REMARK   37  A    between atoms: _85  and  _86
REMARK   38  A    between atoms: _86  and  _87
REMARK   39  A    between atoms: _96  and  _98
REMARK   40  A    between atoms: _98  and  _99
REMARK   41  A    between atoms: _98  and  _101
REMARK   42  A    between atoms: _101  and  _102
REMARK   43  A    between atoms: _107  and  _109
REMARK   44  A    between atoms: _109  and  _110
REMARK   45  A    between atoms: _109  and  _112
REMARK   46  A    between atoms: _112  and  _113
REMARK   47  A    between atoms: _116  and  _118
REMARK   48  A    between atoms: _118  and  _119
REMARK   49  A    between atoms: _118  and  _121
REMARK   50  A    between atoms: _121  and  _122
REMARK   51  A    between atoms: _132  and  _134
REMARK   52  A    between atoms: _134  and  _135
REMARK   53  A    between atoms: _134  and  _137
REMARK   54  A    between atoms: _137  and  _138
REMARK   55  A    between atoms: _143  and  _145
REMARK   56  A    between atoms: _145  and  _146
REMARK   57  A    between atoms: _145  and  _148
REMARK   58  A    between atoms: _148  and  _149
REMARK   59  A    between atoms: _151  and  _153
REMARK   60  A    between atoms: _153  and  _154
REMARK   61  A    between atoms: _153  and  _156
REMARK   62  A    between atoms: _156  and  _157
REMARK   63  A    between atoms: _157  and  _158
REMARK   64  A    between atoms: _163  and  _165
REMARK   65  A    between atoms: _165  and  _166
REMARK   66  A    between atoms: _165  and  _168
REMARK   67  A    between atoms: _168  and  _169
REMARK   68  A    between atoms: _172  and  _174
REMARK   69  A    between atoms: _174  and  _175
REMARK   70  A    between atoms: _174  and  _177
REMARK   71  A    between atoms: _177  and  _178
REMARK   72  A    between atoms: _183  and  _185
REMARK   73  A    between atoms: _185  and  _186
REMARK   74  A    between atoms: _185  and  _188
REMARK   75  A    between atoms: _188  and  _189
REMARK   76  A    between atoms: _189  and  _190
REMARK   77  A    between atoms: _193  and  _195
REMARK   78  A    between atoms: _195  and  _196
REMARK   79  A    between atoms: _195  and  _198
REMARK   80  A    between atoms: _198  and  _199
REMARK   81  A    between atoms: _204  and  _206
REMARK   82  A    between atoms: _206  and  _207
REMARK   83  A    between atoms: _206  and  _209
REMARK   84  A    between atoms: _209  and  _210
REMARK   85  A    between atoms: _213  and  _215
REMARK   86  A    between atoms: _215  and  _216
REMARK   87  A    between atoms: _215  and  _218
REMARK   88  A    between atoms: _218  and  _219
REMARK   89  A    between atoms: _224  and  _225
REMARK   90  A    between atoms: _227  and  _229
REMARK   91  A    between atoms: _229  and  _230
REMARK   92  A    between atoms: _229  and  _232
REMARK   93  A    between atoms: _232  and  _233
REMARK   94  A    between atoms: _233  and  _234
REMARK   95  A    between atoms: _239  and  _241
REMARK   96  A    between atoms: _241  and  _242
REMARK   97  A    between atoms: _241  and  _244
REMARK   98  A    between atoms: _244  and  _245
REMARK   99  A    between atoms: _250  and  _252
REMARK  100  A    between atoms: _252  and  _253
REMARK  101  A    between atoms: _252  and  _255
REMARK  102  A    between atoms: _255  and  _256
REMARK  103  A    between atoms: _259  and  _261
REMARK  104  A    between atoms: _261  and  _262
REMARK  105  A    between atoms: _261  and  _264
REMARK  106  A    between atoms: _264  and  _265
REMARK  107  A    between atoms: _265  and  _266
REMARK  108  A    between atoms: _269  and  _271
REMARK  109  A    between atoms: _271  and  _272
REMARK  110  A    between atoms: _271  and  _274
REMARK  111  A    between atoms: _274  and  _275
REMARK  112  A    between atoms: _278  and  _280
REMARK  113  A    between atoms: _280  and  _281
REMARK  114  A    between atoms: _280  and  _283
REMARK  115  A    between atoms: _283  and  _284
REMARK  116  A    between atoms: _294  and  _296
REMARK  117  A    between atoms: _296  and  _297
REMARK  118  A    between atoms: _299  and  _301
REMARK  119  A    between atoms: _301  and  _302
REMARK  120  A    between atoms: _301  and  _304
REMARK  121  A    between atoms: _304  and  _305
REMARK  122  A    between atoms: _308  and  _310
REMARK  123  A    between atoms: _310  and  _311
REMARK  124  A    between atoms: _310  and  _313
REMARK  125  A    between atoms: _313  and  _314
REMARK  126  A    between atoms: _316  and  _318
REMARK  127  A    between atoms: _318  and  _319
REMARK  128  A    between atoms: _318  and  _321
REMARK  129  A    between atoms: _321  and  _322
REMARK  130  A    between atoms: _332  and  _334
REMARK  131  A    between atoms: _334  and  _335
REMARK  132  A    between atoms: _334  and  _337
REMARK  133  A    between atoms: _337  and  _338
REMARK  134  A    between atoms: _338  and  _339
REMARK  135  A    between atoms: _339  and  _340
REMARK                            x       y       z     vdW  Elec       q    Type
REMARK                         _______ _______ _______ _____ _____    ______ ____
ROOT
ATOM      1  O   HOH     1       5.198   7.703  14.034  0.00  0.00    +0.000 OA
ENDROOT
TORSDOF 0
REMARK  Name = ../refined-set-2016/1od8/1od8_pocket.pdb
REMARK  135 active torsions:
REMARK  status: ('A' for Active; 'I' for Inactive)
REMARK    1  A    between atoms: _1  and  _3
REMARK    2  A    between atoms: _3  and  _4
REMARK    3  A    between atoms: _7  and  _9
REMARK    4  A    between atoms: _9  and  _10
REMARK    5  A    between atoms: _13  and  _15
REMARK    6  A    between atoms: _15  and  _16
REMARK    7  A    between atoms: _15  and  _18
REMARK    8  A    between atoms: _18  and  _19
REMARK    9  A    between atoms: _19  and  _20
REMARK   10  A    between atoms: _20  and  _21
REMARK   11  A    between atoms: _30  and  _32
REMARK   12  A    between atoms: _32  and  _33
REMARK   13  A    between atoms: _32  and  _35
REMARK   14  A    between atoms: _35  and  _36
REMARK   15  A    between atoms: _39  and  _41
REMARK   16  A    between atoms: _41  and  _42
REMARK   17  A    between atoms: _45  and  _47
REMARK   18  A    between atoms: _47  and  _48
REMARK   19  A    between atoms: _47  and  _50
REMARK   20  A    between atoms: _50  and  _51
REMARK   21  A    between atoms: _51  and  _52
REMARK   22  A    between atoms: _55  and  _57
REMARK   23  A    between atoms: _57  and  _58
REMARK   24  A    between atoms: _57  and  _60
REMARK   25  A    between atoms: _60  and  _61
REMARK   26  A    between atoms: _66  and  _68
REMARK   27  A    between atoms: _68  and  _69
REMARK   28  A    between atoms: _68  and  _71
REMARK   29  A    between atoms: _71  and  _72
REMARK   30  A    between atoms: _72  and  _73
REMARK   31  A    between atoms: _73  and  _74
REMARK   32  A    between atoms: _74  and  _75
REMARK   33  A    between atoms: _79  and  _81
REMARK   34  A    between atoms: _81  and  _82
REMARK   35  A    between atoms: _81  and  _84
REMARK   36  A    between atoms: _84  and  _85
REMARK   37  A    between atoms: _85  and  _86
REMARK   38  A    between atoms: _86  and  _87
REMARK   39  A    between atoms: _96  and  _98
REMARK   40  A    between atoms: _98  and  _99
REMARK   41  A    between atoms: _98  and  _101
REMARK   42  A    between atoms: _101  and  _102
REMARK   43  A    between atoms: _107  and  _109
REMARK   44  A    between atoms: _109  and  _110
REMARK   45  A    between atoms: _109  and  _112
REMARK   46  A    between atoms: _112  and  _113
REMARK   47  A    between atoms: _116  and  _118
REMARK   48  A    between atoms: _118  and  _119
REMARK   49  A    between atoms: _118  and  _121
REMARK   50  A    between atoms: _121  and  _122
REMARK   51  A    between atoms: _132  and  _134
REMARK   52  A    between atoms: _134  and  _135
REMARK   53  A    between atoms: _134  and  _137
REMARK   54  A    between atoms: _137  and  _138
REMARK   55  A    between atoms: _143  and  _145
REMARK   56  A    between atoms: _145  and  _146
REMARK   57  A    between atoms: _145  and  _148
REMARK   58  A    between atoms: _148  and  _149
REMARK   59  A    between atoms: _151  and  _153
REMARK   60  A    between atoms: _153  and  _154
REMARK   61  A    between atoms: _153  and  _156
REMARK   62  A    between atoms: _156  and  _157
REMARK   63  A    between atoms: _157  and  _158
REMARK   64  A    between atoms: _163  and  _165
REMARK   65  A    between atoms: _165  and  _166
REMARK   66  A    between atoms: _165  and  _168
REMARK   67  A    between atoms: _168  and  _169
REMARK   68  A    between atoms: _172  and  _174
REMARK   69  A    between atoms: _174  and  _175
REMARK   70  A    between atoms: _174  and  _177
REMARK   71  A    between atoms: _177  and  _178
REMARK   72  A    between atoms: _183  and  _185
REMARK   73  A    between atoms: _185  and  _186
REMARK   74  A    between atoms: _185  and  _188
REMARK   75  A    between atoms: _188  and  _189
REMARK   76  A    between atoms: _189  and  _190
REMARK   77  A    between atoms: _193  and  _195
REMARK   78  A    between atoms: _195  and  _196
REMARK   79  A    between atoms: _195  and  _198
REMARK   80  A    between atoms: _198  and  _199
REMARK   81  A    between atoms: _204  and  _206
REMARK   82  A    between atoms: _206  and  _207
REMARK   83  A    between atoms: _206  and  _209
REMARK   84  A    between atoms: _209  and  _210
REMARK   85  A    between atoms: _213  and  _215
REMARK   86  A    between atoms: _215  and  _216
REMARK   87  A    between atoms: _215  and  _218
REMARK   88  A    between atoms: _218  and  _219
REMARK   89  A    between atoms: _224  and  _225
REMARK   90  A    between atoms: _227  and  _229
REMARK   91  A    between atoms: _229  and  _230
REMARK   92  A    between atoms: _229  and  _232
REMARK   93  A    between atoms: _232  and  _233
REMARK   94  A    between atoms: _233  and  _234
REMARK   95  A    between atoms: _239  and  _241
REMARK   96  A    between atoms: _241  and  _242
REMARK   97  A    between atoms: _241  and  _244
REMARK   98  A    between atoms: _244  and  _245
REMARK   99  A    between atoms: _250  and  _252
REMARK  100  A    between atoms: _252  and  _253
REMARK  101  A    between atoms: _252  and  _255
REMARK  102  A    between atoms: _255  and  _256
REMARK  103  A    between atoms: _259  and  _261
REMARK  104  A    between atoms: _261  and  _262
REMARK  105  A    between atoms: _261  and  _264
REMARK  106  A    between atoms: _264  and  _265
REMARK  107  A    between atoms: _265  and  _266
REMARK  108  A    between atoms: _269  and  _271
REMARK  109  A    between atoms: _271  and  _272
REMARK  110  A    between atoms: _271  and  _274
REMARK  111  A    between atoms: _274  and  _275
REMARK  112  A    between atoms: _278  and  _280
REMARK  113  A    between atoms: _280  and  _281
REMARK  114  A    between atoms: _280  and  _283
REMARK  115  A    between atoms: _283  and  _284
REMARK  116  A    between atoms: _294  and  _296
REMARK  117  A    between atoms: _296  and  _297
REMARK  118  A    between atoms: _299  and  _301
REMARK  119  A    between atoms: _301  and  _302
REMARK  120  A    between atoms: _301  and  _304
REMARK  121  A    between atoms: _304  and  _305
REMARK  122  A    between atoms: _308  and  _310
REMARK  123  A    between atoms: _310  and  _311
REMARK  124  A    between atoms: _310  and  _313
REMARK  125  A    between atoms: _313  and  _314
REMARK  126  A    between atoms: _316  and  _318
REMARK  127  A    between atoms: _318  and  _319
REMARK  128  A    between atoms: _318  and  _321
REMARK  129  A    between atoms: _321  and  _322
REMARK  130  A    between atoms: _332  and  _334
REMARK  131  A    between atoms: _334  and  _335
REMARK  132  A    between atoms: _334  and  _337
REMARK  133  A    between atoms: _337  and  _338
REMARK  134  A    between atoms: _338  and  _339
REMARK  135  A    between atoms: _339  and  _340
REMARK                            x       y       z     vdW  Elec       q    Type
REMARK                         _______ _______ _______ _____ _____    ______ ____
ROOT
ATOM      1  O   HOH     1       5.303   7.531  20.807  0.00  0.00    +0.000 OA
ENDROOT
TORSDOF 0
REMARK  Name = ../refined-set-2016/1od8/1od8_pocket.pdb
REMARK  135 active torsions:
REMARK  status: ('A' for Active; 'I' for Inactive)
REMARK    1  A    between atoms: _1  and  _3
REMARK    2  A    between atoms: _3  and  _4
REMARK    3  A    between atoms: _7  and  _9
REMARK    4  A    between atoms: _9  and  _10
REMARK    5  A    between atoms: _13  and  _15
REMARK    6  A    between atoms: _15  and  _16
REMARK    7  A    between atoms: _15  and  _18
REMARK    8  A    between atoms: _18  and  _19
REMARK    9  A    between atoms: _19  and  _20
REMARK   10  A    between atoms: _20  and  _21
REMARK   11  A    between atoms: _30  and  _32
REMARK   12  A    between atoms: _32  and  _33
REMARK   13  A    between atoms: _32  and  _35
REMARK   14  A    between atoms: _35  and  _36
REMARK   15  A    between atoms: _39  and  _41
REMARK   16  A    between atoms: _41  and  _42
REMARK   17  A    between atoms: _45  and  _47
REMARK   18  A    between atoms: _47  and  _48
REMARK   19  A    between atoms: _47  and  _50
REMARK   20  A    between atoms: _50  and  _51
REMARK   21  A    between atoms: _51  and  _52
REMARK   22  A    between atoms: _55  and  _57
REMARK   23  A    between atoms: _57  and  _58
REMARK   24  A    between atoms: _57  and  _60
REMARK   25  A    between atoms: _60  and  _61
REMARK   26  A    between atoms: _66  and  _68
REMARK   27  A    between atoms: _68  and  _69
REMARK   28  A    between atoms: _68  and  _71
REMARK   29  A    between atoms: _71  and  _72
REMARK   30  A    between atoms: _72  and  _73
REMARK   31  A    between atoms: _73  and  _74
REMARK   32  A    between atoms: _74  and  _75
REMARK   33  A    between atoms: _79  and  _81
REMARK   34  A    between atoms: _81  and  _82
REMARK   35  A    between atoms: _81  and  _84
REMARK   36  A    between atoms: _84  and  _85
REMARK   37  A    between atoms: _85  and  _86
REMARK   38  A    between atoms: _86  and  _87
REMARK   39  A    between atoms: _96  and  _98
REMARK   40  A    between atoms: _98  and  _99
REMARK   41  A    between atoms: _98  and  _101
REMARK   42  A    between atoms: _101  and  _102
REMARK   43  A    between atoms: _107  and  _109
REMARK   44  A    between atoms: _109  and  _110
REMARK   45  A    between atoms: _109  and  _112
REMARK   46  A    between atoms: _112  and  _113
REMARK   47  A    between atoms: _116  and  _118
REMARK   48  A    between atoms: _118  and  _119
REMARK   49  A    between atoms: _118  and  _121
REMARK   50  A    between atoms: _121  and  _122
REMARK   51  A    between atoms: _132  and  _134
REMARK   52  A    between atoms: _134  and  _135
REMARK   53  A    between atoms: _134  and  _137
REMARK   54  A    between atoms: _137  and  _138
REMARK   55  A    between atoms: _143  and  _145
REMARK   56  A    between atoms: _145  and  _146
REMARK   57  A    between atoms: _145  and  _148
REMARK   58  A    between atoms: _148  and  _149
REMARK   59  A    between atoms: _151  and  _153
REMARK   60  A    between atoms: _153  and  _154
REMARK   61  A    between atoms: _153  and  _156
REMARK   62  A    between atoms: _156  and  _157
REMARK   63  A    between atoms: _157  and  _158
REMARK   64  A    between atoms: _163  and  _165
REMARK   65  A    between atoms: _165  and  _166
REMARK   66  A    between atoms: _165  and  _168
REMARK   67  A    between atoms: _168  and  _169
REMARK   68  A    between atoms: _172  and  _174
REMARK   69  A    between atoms: _174  and  _175
REMARK   70  A    between atoms: _174  and  _177
REMARK   71  A    between atoms: _177  and  _178
REMARK   72  A    between atoms: _183  and  _185
REMARK   73  A    between atoms: _185  and  _186
REMARK   74  A    between atoms: _185  and  _188
REMARK   75  A    between atoms: _188  and  _189
REMARK   76  A    between atoms: _189  and  _190
REMARK   77  A    between atoms: _193  and  _195
REMARK   78  A    between atoms: _195  and  _196
REMARK   79  A    between atoms: _195  and  _198
REMARK   80  A    between atoms: _198  and  _199
REMARK   81  A    between atoms: _204  and  _206
REMARK   82  A    between atoms: _206  and  _207
REMARK   83  A    between atoms: _206  and  _209
REMARK   84  A    between atoms: _209  and  _210
REMARK   85  A    between atoms: _213  and  _215
REMARK   86  A    between atoms: _215  and  _216
REMARK   87  A    between atoms: _215  and  _218
REMARK   88  A    between atoms: _218  and  _219
REMARK   89  A    between atoms: _224  and  _225
REMARK   90  A    between atoms: _227  and  _229
REMARK   91  A    between atoms: _229  and  _230
REMARK   92  A    between atoms: _229  and  _232
REMARK   93  A    between atoms: _232  and  _233
REMARK   94  A    between atoms: _233  and  _234
REMARK   95  A    between atoms: _239  and  _241
REMARK   96  A    between atoms: _241  and  _242
REMARK   97  A    between atoms: _241  and  _244
REMARK   98  A    between atoms: _244  and  _245
REMARK   99  A    between atoms: _250  and  _252
REMARK  100  A    between atoms: _252  and  _253
REMARK  101  A    between atoms: _252  and  _255
REMARK  102  A    between atoms: _255  and  _256
REMARK  103  A    between atoms: _259  and  _261
REMARK  104  A    between atoms: _261  and  _262
REMARK  105  A    between atoms: _261  and  _264
REMARK  106  A    between atoms: _264  and  _265
REMARK  107  A    between atoms: _265  and  _266
REMARK  108  A    between atoms: _269  and  _271
REMARK  109  A    between atoms: _271  and  _272
REMARK  110  A    between atoms: _271  and  _274
REMARK  111  A    between atoms: _274  and  _275
REMARK  112  A    between atoms: _278  and  _280
REMARK  113  A    between atoms: _280  and  _281
REMARK  114  A    between atoms: _280  and  _283
REMARK  115  A    between atoms: _283  and  _284
REMARK  116  A    between atoms: _294  and  _296
REMARK  117  A    between atoms: _296  and  _297
REMARK  118  A    between atoms: _299  and  _301
REMARK  119  A    between atoms: _301  and  _302
REMARK  120  A    between atoms: _301  and  _304
REMARK  121  A    between atoms: _304  and  _305
REMARK  122  A    between atoms: _308  and  _310
REMARK  123  A    between atoms: _310  and  _311
REMARK  124  A    between atoms: _310  and  _313
REMARK  125  A    between atoms: _313  and  _314
REMARK  126  A    between atoms: _316  and  _318
REMARK  127  A    between atoms: _318  and  _319
REMARK  128  A    between atoms: _318  and  _321
REMARK  129  A    between atoms: _321  and  _322
REMARK  130  A    between atoms: _332  and  _334
REMARK  131  A    between atoms: _334  and  _335
REMARK  132  A    between atoms: _334  and  _337
REMARK  133  A    between atoms: _337  and  _338
REMARK  134  A    between atoms: _338  and  _339
REMARK  135  A    between atoms: _339  and  _340
REMARK                            x       y       z     vdW  Elec       q    Type
REMARK                         _______ _______ _______ _____ _____    ______ ____
ROOT
ATOM      1  O   HOH     1       1.621  14.859  22.067  0.00  0.00    +0.000 OA
ENDROOT
TORSDOF 0
REMARK  Name = ../refined-set-2016/1od8/1od8_pocket.pdb
REMARK  135 active torsions:
REMARK  status: ('A' for Active; 'I' for Inactive)
REMARK    1  A    between atoms: _1  and  _3
REMARK    2  A    between atoms: _3  and  _4
REMARK    3  A    between atoms: _7  and  _9
REMARK    4  A    between atoms: _9  and  _10
REMARK    5  A    between atoms: _13  and  _15
REMARK    6  A    between atoms: _15  and  _16
REMARK    7  A    between atoms: _15  and  _18
REMARK    8  A    between atoms: _18  and  _19
REMARK    9  A    between atoms: _19  and  _20
REMARK   10  A    between atoms: _20  and  _21
REMARK   11  A    between atoms: _30  and  _32
REMARK   12  A    between atoms: _32  and  _33
REMARK   13  A    between atoms: _32  and  _35
REMARK   14  A    between atoms: _35  and  _36
REMARK   15  A    between atoms: _39  and  _41
REMARK   16  A    between atoms: _41  and  _42
REMARK   17  A    between atoms: _45  and  _47
REMARK   18  A    between atoms: _47  and  _48
REMARK   19  A    between atoms: _47  and  _50
REMARK   20  A    between atoms: _50  and  _51
REMARK   21  A    between atoms: _51  and  _52
REMARK   22  A    between atoms: _55  and  _57
REMARK   23  A    between atoms: _57  and  _58
REMARK   24  A    between atoms: _57  and  _60
REMARK   25  A    between atoms: _60  and  _61
REMARK   26  A    between atoms: _66  and  _68
REMARK   27  A    between atoms: _68  and  _69
REMARK   28  A    between atoms: _68  and  _71
REMARK   29  A    between atoms: _71  and  _72
REMARK   30  A    between atoms: _72  and  _73
REMARK   31  A    between atoms: _73  and  _74
REMARK   32  A    between atoms: _74  and  _75
REMARK   33  A    between atoms: _79  and  _81
REMARK   34  A    between atoms: _81  and  _82
REMARK   35  A    between atoms: _81  and  _84
REMARK   36  A    between atoms: _84  and  _85
REMARK   37  A    between atoms: _85  and  _86
REMARK   38  A    between atoms: _86  and  _87
REMARK   39  A    between atoms: _96  and  _98
REMARK   40  A    between atoms: _98  and  _99
REMARK   41  A    between atoms: _98  and  _101
REMARK   42  A    between atoms: _101  and  _102
REMARK   43  A    between atoms: _107  and  _109
REMARK   44  A    between atoms: _109  and  _110
REMARK   45  A    between atoms: _109  and  _112
REMARK   46  A    between atoms: _112  and  _113
REMARK   47  A    between atoms: _116  and  _118
REMARK   48  A    between atoms: _118  and  _119
REMARK   49  A    between atoms: _118  and  _121
REMARK   50  A    between atoms: _121  and  _122
REMARK   51  A    between atoms: _132  and  _134
REMARK   52  A    between atoms: _134  and  _135
REMARK   53  A    between atoms: _134  and  _137
REMARK   54  A    between atoms: _137  and  _138
REMARK   55  A    between atoms: _143  and  _145
REMARK   56  A    between atoms: _145  and  _146
REMARK   57  A    between atoms: _145  and  _148
REMARK   58  A    between atoms: _148  and  _149
REMARK   59  A    between atoms: _151  and  _153
REMARK   60  A    between atoms: _153  and  _154
REMARK   61  A    between atoms: _153  and  _156
REMARK   62  A    between atoms: _156  and  _157
REMARK   63  A    between atoms: _157  and  _158
REMARK   64  A    between atoms: _163  and  _165
REMARK   65  A    between atoms: _165  and  _166
REMARK   66  A    between atoms: _165  and  _168
REMARK   67  A    between atoms: _168  and  _169
REMARK   68  A    between atoms: _172  and  _174
REMARK   69  A    between atoms: _174  and  _175
REMARK   70  A    between atoms: _174  and  _177
REMARK   71  A    between atoms: _177  and  _178
REMARK   72  A    between atoms: _183  and  _185
REMARK   73  A    between atoms: _185  and  _186
REMARK   74  A    between atoms: _185  and  _188
REMARK   75  A    between atoms: _188  and  _189
REMARK   76  A    between atoms: _189  and  _190
REMARK   77  A    between atoms: _193  and  _195
REMARK   78  A    between atoms: _195  and  _196
REMARK   79  A    between atoms: _195  and  _198
REMARK   80  A    between atoms: _198  and  _199
REMARK   81  A    between atoms: _204  and  _206
REMARK   82  A    between atoms: _206  and  _207
REMARK   83  A    between atoms: _206  and  _209
REMARK   84  A    between atoms: _209  and  _210
REMARK   85  A    between atoms: _213  and  _215
REMARK   86  A    between atoms: _215  and  _216
REMARK   87  A    between atoms: _215  and  _218
REMARK   88  A    between atoms: _218  and  _219
REMARK   89  A    between atoms: _224  and  _225
REMARK   90  A    between atoms: _227  and  _229
REMARK   91  A    between atoms: _229  and  _230
REMARK   92  A    between atoms: _229  and  _232
REMARK   93  A    between atoms: _232  and  _233
REMARK   94  A    between atoms: _233  and  _234
REMARK   95  A    between atoms: _239  and  _241
REMARK   96  A    between atoms: _241  and  _242
REMARK   97  A    between atoms: _241  and  _244
REMARK   98  A    between atoms: _244  and  _245
REMARK   99  A    between atoms: _250  and  _252
REMARK  100  A    between atoms: _252  and  _253
REMARK  101  A    between atoms: _252  and  _255
REMARK  102  A    between atoms: _255  and  _256
REMARK  103  A    between atoms: _259  and  _261
REMARK  104  A    between atoms: _261  and  _262
REMARK  105  A    between atoms: _261  and  _264
REMARK  106  A    between atoms: _264  and  _265
REMARK  107  A    between atoms: _265  and  _266
REMARK  108  A    between atoms: _269  and  _271
REMARK  109  A    between atoms: _271  and  _272
REMARK  110  A    between atoms: _271  and  _274
REMARK  111  A    between atoms: _274  and  _275
REMARK  112  A    between atoms: _278  and  _280
REMARK  113  A    between atoms: _280  and  _281
REMARK  114  A    between atoms: _280  and  _283
REMARK  115  A    between atoms: _283  and  _284
REMARK  116  A    between atoms: _294  and  _296
REMARK  117  A    between atoms: _296  and  _297
REMARK  118  A    between atoms: _299  and  _301
REMARK  119  A    between atoms: _301  and  _302
REMARK  120  A    between atoms: _301  and  _304
REMARK  121  A    between atoms: _304  and  _305
REMARK  122  A    between atoms: _308  and  _310
REMARK  123  A    between atoms: _310  and  _311
REMARK  124  A    between atoms: _310  and  _313
REMARK  125  A    between atoms: _313  and  _314
REMARK  126  A    between atoms: _316  and  _318
REMARK  127  A    between atoms: _318  and  _319
REMARK  128  A    between atoms: _318  and  _321
REMARK  129  A    between atoms: _321  and  _322
REMARK  130  A    between atoms: _332  and  _334
REMARK  131  A    between atoms: _334  and  _335
REMARK  132  A    between atoms: _334  and  _337
REMARK  133  A    between atoms: _337  and  _338
REMARK  134  A    between atoms: _338  and  _339
REMARK  135  A    between atoms: _339  and  _340
REMARK                            x       y       z     vdW  Elec       q    Type
REMARK                         _______ _______ _______ _____ _____    ______ ____
ROOT
ATOM      1  O   HOH     1       4.470  13.604  23.431  0.00  0.00    +0.000 OA
ENDROOT
TORSDOF 0
REMARK  Name = ../refined-set-2016/1od8/1od8_pocket.pdb
REMARK  135 active torsions:
REMARK  status: ('A' for Active; 'I' for Inactive)
REMARK    1  A    between atoms: _1  and  _3
REMARK    2  A    between atoms: _3  and  _4
REMARK    3  A    between atoms: _7  and  _9
REMARK    4  A    between atoms: _9  and  _10
REMARK    5  A    between atoms: _13  and  _15
REMARK    6  A    between atoms: _15  and  _16
REMARK    7  A    between atoms: _15  and  _18
REMARK    8  A    between atoms: _18  and  _19
REMARK    9  A    between atoms: _19  and  _20
REMARK   10  A    between atoms: _20  and  _21
REMARK   11  A    between atoms: _30  and  _32
REMARK   12  A    between atoms: _32  and  _33
REMARK   13  A    between atoms: _32  and  _35
REMARK   14  A    between atoms: _35  and  _36
REMARK   15  A    between atoms: _39  and  _41
REMARK   16  A    between atoms: _41  and  _42
REMARK   17  A    between atoms: _45  and  _47
REMARK   18  A    between atoms: _47  and  _48
REMARK   19  A    between atoms: _47  and  _50
REMARK   20  A    between atoms: _50  and  _51
REMARK   21  A    between atoms: _51  and  _52
REMARK   22  A    between atoms: _55  and  _57
REMARK   23  A    between atoms: _57  and  _58
REMARK   24  A    between atoms: _57  and  _60
REMARK   25  A    between atoms: _60  and  _61
REMARK   26  A    between atoms: _66  and  _68
REMARK   27  A    between atoms: _68  and  _69
REMARK   28  A    between atoms: _68  and  _71
REMARK   29  A    between atoms: _71  and  _72
REMARK   30  A    between atoms: _72  and  _73
REMARK   31  A    between atoms: _73  and  _74
REMARK   32  A    between atoms: _74  and  _75
REMARK   33  A    between atoms: _79  and  _81
REMARK   34  A    between atoms: _81  and  _82
REMARK   35  A    between atoms: _81  and  _84
REMARK   36  A    between atoms: _84  and  _85
REMARK   37  A    between atoms: _85  and  _86
REMARK   38  A    between atoms: _86  and  _87
REMARK   39  A    between atoms: _96  and  _98
REMARK   40  A    between atoms: _98  and  _99
REMARK   41  A    between atoms: _98  and  _101
REMARK   42  A    between atoms: _101  and  _102
REMARK   43  A    between atoms: _107  and  _109
REMARK   44  A    between atoms: _109  and  _110
REMARK   45  A    between atoms: _109  and  _112
REMARK   46  A    between atoms: _112  and  _113
REMARK   47  A    between atoms: _116  and  _118
REMARK   48  A    between atoms: _118  and  _119
REMARK   49  A    between atoms: _118  and  _121
REMARK   50  A    between atoms: _121  and  _122
REMARK   51  A    between atoms: _132  and  _134
REMARK   52  A    between atoms: _134  and  _135
REMARK   53  A    between atoms: _134  and  _137
REMARK   54  A    between atoms: _137  and  _138
REMARK   55  A    between atoms: _143  and  _145
REMARK   56  A    between atoms: _145  and  _146
REMARK   57  A    between atoms: _145  and  _148
REMARK   58  A    between atoms: _148  and  _149
REMARK   59  A    between atoms: _151  and  _153
REMARK   60  A    between atoms: _153  and  _154
REMARK   61  A    between atoms: _153  and  _156
REMARK   62  A    between atoms: _156  and  _157
REMARK   63  A    between atoms: _157  and  _158
REMARK   64  A    between atoms: _163  and  _165
REMARK   65  A    between atoms: _165  and  _166
REMARK   66  A    between atoms: _165  and  _168
REMARK   67  A    between atoms: _168  and  _169
REMARK   68  A    between atoms: _172  and  _174
REMARK   69  A    between atoms: _174  and  _175
REMARK   70  A    between atoms: _174  and  _177
REMARK   71  A    between atoms: _177  and  _178
REMARK   72  A    between atoms: _183  and  _185
REMARK   73  A    between atoms: _185  and  _186
REMARK   74  A    between atoms: _185  and  _188
REMARK   75  A    between atoms: _188  and  _189
REMARK   76  A    between atoms: _189  and  _190
REMARK   77  A    between atoms: _193  and  _195
REMARK   78  A    between atoms: _195  and  _196
REMARK   79  A    between atoms: _195  and  _198
REMARK   80  A    between atoms: _198  and  _199
REMARK   81  A    between atoms: _204  and  _206
REMARK   82  A    between atoms: _206  and  _207
REMARK   83  A    between atoms: _206  and  _209
REMARK   84  A    between atoms: _209  and  _210
REMARK   85  A    between atoms: _213  and  _215
REMARK   86  A    between atoms: _215  and  _216
REMARK   87  A    between atoms: _215  and  _218
REMARK   88  A    between atoms: _218  and  _219
REMARK   89  A    between atoms: _224  and  _225
REMARK   90  A    between atoms: _227  and  _229
REMARK   91  A    between atoms: _229  and  _230
REMARK   92  A    between atoms: _229  and  _232
REMARK   93  A    between atoms: _232  and  _233
REMARK   94  A    between atoms: _233  and  _234
REMARK   95  A    between atoms: _239  and  _241
REMARK   96  A    between atoms: _241  and  _242
REMARK   97  A    between atoms: _241  and  _244
REMARK   98  A    between atoms: _244  and  _245
REMARK   99  A    between atoms: _250  and  _252
REMARK  100  A    between atoms: _252  and  _253
REMARK  101  A    between atoms: _252  and  _255
REMARK  102  A    between atoms: _255  and  _256
REMARK  103  A    between atoms: _259  and  _261
REMARK  104  A    between atoms: _261  and  _262
REMARK  105  A    between atoms: _261  and  _264
REMARK  106  A    between atoms: _264  and  _265
REMARK  107  A    between atoms: _265  and  _266
REMARK  108  A    between atoms: _269  and  _271
REMARK  109  A    between atoms: _271  and  _272
REMARK  110  A    between atoms: _271  and  _274
REMARK  111  A    between atoms: _274  and  _275
REMARK  112  A    between atoms: _278  and  _280
REMARK  113  A    between atoms: _280  and  _281
REMARK  114  A    between atoms: _280  and  _283
REMARK  115  A    between atoms: _283  and  _284
REMARK  116  A    between atoms: _294  and  _296
REMARK  117  A    between atoms: _296  and  _297
REMARK  118  A    between atoms: _299  and  _301
REMARK  119  A    between atoms: _301  and  _302
REMARK  120  A    between atoms: _301  and  _304
REMARK  121  A    between atoms: _304  and  _305
REMARK  122  A    between atoms: _308  and  _310
REMARK  123  A    between atoms: _310  and  _311
REMARK  124  A    between atoms: _310  and  _313
REMARK  125  A    between atoms: _313  and  _314
REMARK  126  A    between atoms: _316  and  _318
REMARK  127  A    between atoms: _318  and  _319
REMARK  128  A    between atoms: _318  and  _321
REMARK  129  A    between atoms: _321  and  _322
REMARK  130  A    between atoms: _332  and  _334
REMARK  131  A    between atoms: _334  and  _335
REMARK  132  A    between atoms: _334  and  _337
REMARK  133  A    between atoms: _337  and  _338
REMARK  134  A    between atoms: _338  and  _339
REMARK  135  A    between atoms: _339  and  _340
REMARK                            x       y       z     vdW  Elec       q    Type
REMARK                         _______ _______ _______ _____ _____    ______ ____
ROOT
ATOM      1  O   HOH     1      10.315  12.329  22.858  0.00  0.00    +0.000 OA
ENDROOT
TORSDOF 0
REMARK  Name = ../refined-set-2016/1od8/1od8_pocket.pdb
REMARK  135 active torsions:
REMARK  status: ('A' for Active; 'I' for Inactive)
REMARK    1  A    between atoms: _1  and  _3
REMARK    2  A    between atoms: _3  and  _4
REMARK    3  A    between atoms: _7  and  _9
REMARK    4  A    between atoms: _9  and  _10
REMARK    5  A    between atoms: _13  and  _15
REMARK    6  A    between atoms: _15  and  _16
REMARK    7  A    between atoms: _15  and  _18
REMARK    8  A    between atoms: _18  and  _19
REMARK    9  A    between atoms: _19  and  _20
REMARK   10  A    between atoms: _20  and  _21
REMARK   11  A    between atoms: _30  and  _32
REMARK   12  A    between atoms: _32  and  _33
REMARK   13  A    between atoms: _32  and  _35
REMARK   14  A    between atoms: _35  and  _36
REMARK   15  A    between atoms: _39  and  _41
REMARK   16  A    between atoms: _41  and  _42
REMARK   17  A    between atoms: _45  and  _47
REMARK   18  A    between atoms: _47  and  _48
REMARK   19  A    between atoms: _47  and  _50
REMARK   20  A    between atoms: _50  and  _51
REMARK   21  A    between atoms: _51  and  _52
REMARK   22  A    between atoms: _55  and  _57
REMARK   23  A    between atoms: _57  and  _58
REMARK   24  A    between atoms: _57  and  _60
REMARK   25  A    between atoms: _60  and  _61
REMARK   26  A    between atoms: _66  and  _68
REMARK   27  A    between atoms: _68  and  _69
REMARK   28  A    between atoms: _68  and  _71
REMARK   29  A    between atoms: _71  and  _72
REMARK   30  A    between atoms: _72  and  _73
REMARK   31  A    between atoms: _73  and  _74
REMARK   32  A    between atoms: _74  and  _75
REMARK   33  A    between atoms: _79  and  _81
REMARK   34  A    between atoms: _81  and  _82
REMARK   35  A    between atoms: _81  and  _84
REMARK   36  A    between atoms: _84  and  _85
REMARK   37  A    between atoms: _85  and  _86
REMARK   38  A    between atoms: _86  and  _87
REMARK   39  A    between atoms: _96  and  _98
REMARK   40  A    between atoms: _98  and  _99
REMARK   41  A    between atoms: _98  and  _101
REMARK   42  A    between atoms: _101  and  _102
REMARK   43  A    between atoms: _107  and  _109
REMARK   44  A    between atoms: _109  and  _110
REMARK   45  A    between atoms: _109  and  _112
REMARK   46  A    between atoms: _112  and  _113
REMARK   47  A    between atoms: _116  and  _118
REMARK   48  A    between atoms: _118  and  _119
REMARK   49  A    between atoms: _118  and  _121
REMARK   50  A    between atoms: _121  and  _122
REMARK   51  A    between atoms: _132  and  _134
REMARK   52  A    between atoms: _134  and  _135
REMARK   53  A    between atoms: _134  and  _137
REMARK   54  A    between atoms: _137  and  _138
REMARK   55  A    between atoms: _143  and  _145
REMARK   56  A    between atoms: _145  and  _146
REMARK   57  A    between atoms: _145  and  _148
REMARK   58  A    between atoms: _148  and  _149
REMARK   59  A    between atoms: _151  and  _153
REMARK   60  A    between atoms: _153  and  _154
REMARK   61  A    between atoms: _153  and  _156
REMARK   62  A    between atoms: _156  and  _157
REMARK   63  A    between atoms: _157  and  _158
REMARK   64  A    between atoms: _163  and  _165
REMARK   65  A    between atoms: _165  and  _166
REMARK   66  A    between atoms: _165  and  _168
REMARK   67  A    between atoms: _168  and  _169
REMARK   68  A    between atoms: _172  and  _174
REMARK   69  A    between atoms: _174  and  _175
REMARK   70  A    between atoms: _174  and  _177
REMARK   71  A    between atoms: _177  and  _178
REMARK   72  A    between atoms: _183  and  _185
REMARK   73  A    between atoms: _185  and  _186
REMARK   74  A    between atoms: _185  and  _188
REMARK   75  A    between atoms: _188  and  _189
REMARK   76  A    between atoms: _189  and  _190
REMARK   77  A    between atoms: _193  and  _195
REMARK   78  A    between atoms: _195  and  _196
REMARK   79  A    between atoms: _195  and  _198
REMARK   80  A    between atoms: _198  and  _199
REMARK   81  A    between atoms: _204  and  _206
REMARK   82  A    between atoms: _206  and  _207
REMARK   83  A    between atoms: _206  and  _209
REMARK   84  A    between atoms: _209  and  _210
REMARK   85  A    between atoms: _213  and  _215
REMARK   86  A    between atoms: _215  and  _216
REMARK   87  A    between atoms: _215  and  _218
REMARK   88  A    between atoms: _218  and  _219
REMARK   89  A    between atoms: _224  and  _225
REMARK   90  A    between atoms: _227  and  _229
REMARK   91  A    between atoms: _229  and  _230
REMARK   92  A    between atoms: _229  and  _232
REMARK   93  A    between atoms: _232  and  _233
REMARK   94  A    between atoms: _233  and  _234
REMARK   95  A    between atoms: _239  and  _241
REMARK   96  A    between atoms: _241  and  _242
REMARK   97  A    between atoms: _241  and  _244
REMARK   98  A    between atoms: _244  and  _245
REMARK   99  A    between atoms: _250  and  _252
REMARK  100  A    between atoms: _252  and  _253
REMARK  101  A    between atoms: _252  and  _255
REMARK  102  A    between atoms: _255  and  _256
REMARK  103  A    between atoms: _259  and  _261
REMARK  104  A    between atoms: _261  and  _262
REMARK  105  A    between atoms: _261  and  _264
REMARK  106  A    between atoms: _264  and  _265
REMARK  107  A    between atoms: _265  and  _266
REMARK  108  A    between atoms: _269  and  _271
REMARK  109  A    between atoms: _271  and  _272
REMARK  110  A    between atoms: _271  and  _274
REMARK  111  A    between atoms: _274  and  _275
REMARK  112  A    between atoms: _278  and  _280
REMARK  113  A    between atoms: _280  and  _281
REMARK  114  A    between atoms: _280  and  _283
REMARK  115  A    between atoms: _283  and  _284
REMARK  116  A    between atoms: _294  and  _296
REMARK  117  A    between atoms: _296  and  _297
REMARK  118  A    between atoms: _299  and  _301
REMARK  119  A    between atoms: _301  and  _302
REMARK  120  A    between atoms: _301  and  _304
REMARK  121  A    between atoms: _304  and  _305
REMARK  122  A    between atoms: _308  and  _310
REMARK  123  A    between atoms: _310  and  _311
REMARK  124  A    between atoms: _310  and  _313
REMARK  125  A    between atoms: _313  and  _314
REMARK  126  A    between atoms: _316  and  _318
REMARK  127  A    between atoms: _318  and  _319
REMARK  128  A    between atoms: _318  and  _321
REMARK  129  A    between atoms: _321  and  _322
REMARK  130  A    between atoms: _332  and  _334
REMARK  131  A    between atoms: _334  and  _335
REMARK  132  A    between atoms: _334  and  _337
REMARK  133  A    between atoms: _337  and  _338
REMARK  134  A    between atoms: _338  and  _339
REMARK  135  A    between atoms: _339  and  _340
REMARK                            x       y       z     vdW  Elec       q    Type
REMARK                         _______ _______ _______ _____ _____    ______ ____
ROOT
ATOM      1  O   HOH     1       5.119  23.188  14.085  0.00  0.00    +0.000 OA
ENDROOT
TORSDOF 0
REMARK  Name = ../refined-set-2016/1od8/1od8_pocket.pdb
REMARK  135 active torsions:
REMARK  status: ('A' for Active; 'I' for Inactive)
REMARK    1  A    between atoms: _1  and  _3
REMARK    2  A    between atoms: _3  and  _4
REMARK    3  A    between atoms: _7  and  _9
REMARK    4  A    between atoms: _9  and  _10
REMARK    5  A    between atoms: _13  and  _15
REMARK    6  A    between atoms: _15  and  _16
REMARK    7  A    between atoms: _15  and  _18
REMARK    8  A    between atoms: _18  and  _19
REMARK    9  A    between atoms: _19  and  _20
REMARK   10  A    between atoms: _20  and  _21
REMARK   11  A    between atoms: _30  and  _32
REMARK   12  A    between atoms: _32  and  _33
REMARK   13  A    between atoms: _32  and  _35
REMARK   14  A    between atoms: _35  and  _36
REMARK   15  A    between atoms: _39  and  _41
REMARK   16  A    between atoms: _41  and  _42
REMARK   17  A    between atoms: _45  and  _47
REMARK   18  A    between atoms: _47  and  _48
REMARK   19  A    between atoms: _47  and  _50
REMARK   20  A    between atoms: _50  and  _51
REMARK   21  A    between atoms: _51  and  _52
REMARK   22  A    between atoms: _55  and  _57
REMARK   23  A    between atoms: _57  and  _58
REMARK   24  A    between atoms: _57  and  _60
REMARK   25  A    between atoms: _60  and  _61
REMARK   26  A    between atoms: _66  and  _68
REMARK   27  A    between atoms: _68  and  _69
REMARK   28  A    between atoms: _68  and  _71
REMARK   29  A    between atoms: _71  and  _72
REMARK   30  A    between atoms: _72  and  _73
REMARK   31  A    between atoms: _73  and  _74
REMARK   32  A    between atoms: _74  and  _75
REMARK   33  A    between atoms: _79  and  _81
REMARK   34  A    between atoms: _81  and  _82
REMARK   35  A    between atoms: _81  and  _84
REMARK   36  A    between atoms: _84  and  _85
REMARK   37  A    between atoms: _85  and  _86
REMARK   38  A    between atoms: _86  and  _87
REMARK   39  A    between atoms: _96  and  _98
REMARK   40  A    between atoms: _98  and  _99
REMARK   41  A    between atoms: _98  and  _101
REMARK   42  A    between atoms: _101  and  _102
REMARK   43  A    between atoms: _107  and  _109
REMARK   44  A    between atoms: _109  and  _110
REMARK   45  A    between atoms: _109  and  _112
REMARK   46  A    between atoms: _112  and  _113
REMARK   47  A    between atoms: _116  and  _118
REMARK   48  A    between atoms: _118  and  _119
REMARK   49  A    between atoms: _118  and  _121
REMARK   50  A    between atoms: _121  and  _122
REMARK   51  A    between atoms: _132  and  _134
REMARK   52  A    between atoms: _134  and  _135
REMARK   53  A    between atoms: _134  and  _137
REMARK   54  A    between atoms: _137  and  _138
REMARK   55  A    between atoms: _143  and  _145
REMARK   56  A    between atoms: _145  and  _146
REMARK   57  A    between atoms: _145  and  _148
REMARK   58  A    between atoms: _148  and  _149
REMARK   59  A    between atoms: _151  and  _153
REMARK   60  A    between atoms: _153  and  _154
REMARK   61  A    between atoms: _153  and  _156
REMARK   62  A    between atoms: _156  and  _157
REMARK   63  A    between atoms: _157  and  _158
REMARK   64  A    between atoms: _163  and  _165
REMARK   65  A    between atoms: _165  and  _166
REMARK   66  A    between atoms: _165  and  _168
REMARK   67  A    between atoms: _168  and  _169
REMARK   68  A    between atoms: _172  and  _174
REMARK   69  A    between atoms: _174  and  _175
REMARK   70  A    between atoms: _174  and  _177
REMARK   71  A    between atoms: _177  and  _178
REMARK   72  A    between atoms: _183  and  _185
REMARK   73  A    between atoms: _185  and  _186
REMARK   74  A    between atoms: _185  and  _188
REMARK   75  A    between atoms: _188  and  _189
REMARK   76  A    between atoms: _189  and  _190
REMARK   77  A    between atoms: _193  and  _195
REMARK   78  A    between atoms: _195  and  _196
REMARK   79  A    between atoms: _195  and  _198
REMARK   80  A    between atoms: _198  and  _199
REMARK   81  A    between atoms: _204  and  _206
REMARK   82  A    between atoms: _206  and  _207
REMARK   83  A    between atoms: _206  and  _209
REMARK   84  A    between atoms: _209  and  _210
REMARK   85  A    between atoms: _213  and  _215
REMARK   86  A    between atoms: _215  and  _216
REMARK   87  A    between atoms: _215  and  _218
REMARK   88  A    between atoms: _218  and  _219
REMARK   89  A    between atoms: _224  and  _225
REMARK   90  A    between atoms: _227  and  _229
REMARK   91  A    between atoms: _229  and  _230
REMARK   92  A    between atoms: _229  and  _232
REMARK   93  A    between atoms: _232  and  _233
REMARK   94  A    between atoms: _233  and  _234
REMARK   95  A    between atoms: _239  and  _241
REMARK   96  A    between atoms: _241  and  _242
REMARK   97  A    between atoms: _241  and  _244
REMARK   98  A    between atoms: _244  and  _245
REMARK   99  A    between atoms: _250  and  _252
REMARK  100  A    between atoms: _252  and  _253
REMARK  101  A    between atoms: _252  and  _255
REMARK  102  A    between atoms: _255  and  _256
REMARK  103  A    between atoms: _259  and  _261
REMARK  104  A    between atoms: _261  and  _262
REMARK  105  A    between atoms: _261  and  _264
REMARK  106  A    between atoms: _264  and  _265
REMARK  107  A    between atoms: _265  and  _266
REMARK  108  A    between atoms: _269  and  _271
REMARK  109  A    between atoms: _271  and  _272
REMARK  110  A    between atoms: _271  and  _274
REMARK  111  A    between atoms: _274  and  _275
REMARK  112  A    between atoms: _278  and  _280
REMARK  113  A    between atoms: _280  and  _281
REMARK  114  A    between atoms: _280  and  _283
REMARK  115  A    between atoms: _283  and  _284
REMARK  116  A    between atoms: _294  and  _296
REMARK  117  A    between atoms: _296  and  _297
REMARK  118  A    between atoms: _299  and  _301
REMARK  119  A    between atoms: _301  and  _302
REMARK  120  A    between atoms: _301  and  _304
REMARK  121  A    between atoms: _304  and  _305
REMARK  122  A    between atoms: _308  and  _310
REMARK  123  A    between atoms: _310  and  _311
REMARK  124  A    between atoms: _310  and  _313
REMARK  125  A    between atoms: _313  and  _314
REMARK  126  A    between atoms: _316  and  _318
REMARK  127  A    between atoms: _318  and  _319
REMARK  128  A    between atoms: _318  and  _321
REMARK  129  A    between atoms: _321  and  _322
REMARK  130  A    between atoms: _332  and  _334
REMARK  131  A    between atoms: _334  and  _335
REMARK  132  A    between atoms: _334  and  _337
REMARK  133  A    between atoms: _337  and  _338
REMARK  134  A    between atoms: _338  and  _339
REMARK  135  A    between atoms: _339  and  _340
REMARK                            x       y       z     vdW  Elec       q    Type
REMARK                         _______ _______ _______ _____ _____    ______ ____
ROOT
ATOM      1  O   HOH     1       2.607  22.141  16.526  0.00  0.00    +0.000 OA
ENDROOT
TORSDOF 0
REMARK  Name = ../refined-set-2016/1od8/1od8_pocket.pdb
REMARK  135 active torsions:
REMARK  status: ('A' for Active; 'I' for Inactive)
REMARK    1  A    between atoms: _1  and  _3
REMARK    2  A    between atoms: _3  and  _4
REMARK    3  A    between atoms: _7  and  _9
REMARK    4  A    between atoms: _9  and  _10
REMARK    5  A    between atoms: _13  and  _15
REMARK    6  A    between atoms: _15  and  _16
REMARK    7  A    between atoms: _15  and  _18
REMARK    8  A    between atoms: _18  and  _19
REMARK    9  A    between atoms: _19  and  _20
REMARK   10  A    between atoms: _20  and  _21
REMARK   11  A    between atoms: _30  and  _32
REMARK   12  A    between atoms: _32  and  _33
REMARK   13  A    between atoms: _32  and  _35
REMARK   14  A    between atoms: _35  and  _36
REMARK   15  A    between atoms: _39  and  _41
REMARK   16  A    between atoms: _41  and  _42
REMARK   17  A    between atoms: _45  and  _47
REMARK   18  A    between atoms: _47  and  _48
REMARK   19  A    between atoms: _47  and  _50
REMARK   20  A    between atoms: _50  and  _51
REMARK   21  A    between atoms: _51  and  _52
REMARK   22  A    between atoms: _55  and  _57
REMARK   23  A    between atoms: _57  and  _58
REMARK   24  A    between atoms: _57  and  _60
REMARK   25  A    between atoms: _60  and  _61
REMARK   26  A    between atoms: _66  and  _68
REMARK   27  A    between atoms: _68  and  _69
REMARK   28  A    between atoms: _68  and  _71
REMARK   29  A    between atoms: _71  and  _72
REMARK   30  A    between atoms: _72  and  _73
REMARK   31  A    between atoms: _73  and  _74
REMARK   32  A    between atoms: _74  and  _75
REMARK   33  A    between atoms: _79  and  _81
REMARK   34  A    between atoms: _81  and  _82
REMARK   35  A    between atoms: _81  and  _84
REMARK   36  A    between atoms: _84  and  _85
REMARK   37  A    between atoms: _85  and  _86
REMARK   38  A    between atoms: _86  and  _87
REMARK   39  A    between atoms: _96  and  _98
REMARK   40  A    between atoms: _98  and  _99
REMARK   41  A    between atoms: _98  and  _101
REMARK   42  A    between atoms: _101  and  _102
REMARK   43  A    between atoms: _107  and  _109
REMARK   44  A    between atoms: _109  and  _110
REMARK   45  A    between atoms: _109  and  _112
REMARK   46  A    between atoms: _112  and  _113
REMARK   47  A    between atoms: _116  and  _118
REMARK   48  A    between atoms: _118  and  _119
REMARK   49  A    between atoms: _118  and  _121
REMARK   50  A    between atoms: _121  and  _122
REMARK   51  A    between atoms: _132  and  _134
REMARK   52  A    between atoms: _134  and  _135
REMARK   53  A    between atoms: _134  and  _137
REMARK   54  A    between atoms: _137  and  _138
REMARK   55  A    between atoms: _143  and  _145
REMARK   56  A    between atoms: _145  and  _146
REMARK   57  A    between atoms: _145  and  _148
REMARK   58  A    between atoms: _148  and  _149
REMARK   59  A    between atoms: _151  and  _153
REMARK   60  A    between atoms: _153  and  _154
REMARK   61  A    between atoms: _153  and  _156
REMARK   62  A    between atoms: _156  and  _157
REMARK   63  A    between atoms: _157  and  _158
REMARK   64  A    between atoms: _163  and  _165
REMARK   65  A    between atoms: _165  and  _166
REMARK   66  A    between atoms: _165  and  _168
REMARK   67  A    between atoms: _168  and  _169
REMARK   68  A    between atoms: _172  and  _174
REMARK   69  A    between atoms: _174  and  _175
REMARK   70  A    between atoms: _174  and  _177
REMARK   71  A    between atoms: _177  and  _178
REMARK   72  A    between atoms: _183  and  _185
REMARK   73  A    between atoms: _185  and  _186
REMARK   74  A    between atoms: _185  and  _188
REMARK   75  A    between atoms: _188  and  _189
REMARK   76  A    between atoms: _189  and  _190
REMARK   77  A    between atoms: _193  and  _195
REMARK   78  A    between atoms: _195  and  _196
REMARK   79  A    between atoms: _195  and  _198
REMARK   80  A    between atoms: _198  and  _199
REMARK   81  A    between atoms: _204  and  _206
REMARK   82  A    between atoms: _206  and  _207
REMARK   83  A    between atoms: _206  and  _209
REMARK   84  A    between atoms: _209  and  _210
REMARK   85  A    between atoms: _213  and  _215
REMARK   86  A    between atoms: _215  and  _216
REMARK   87  A    between atoms: _215  and  _218
REMARK   88  A    between atoms: _218  and  _219
REMARK   89  A    between atoms: _224  and  _225
REMARK   90  A    between atoms: _227  and  _229
REMARK   91  A    between atoms: _229  and  _230
REMARK   92  A    between atoms: _229  and  _232
REMARK   93  A    between atoms: _232  and  _233
REMARK   94  A    between atoms: _233  and  _234
REMARK   95  A    between atoms: _239  and  _241
REMARK   96  A    between atoms: _241  and  _242
REMARK   97  A    between atoms: _241  and  _244
REMARK   98  A    between atoms: _244  and  _245
REMARK   99  A    between atoms: _250  and  _252
REMARK  100  A    between atoms: _252  and  _253
REMARK  101  A    between atoms: _252  and  _255
REMARK  102  A    between atoms: _255  and  _256
REMARK  103  A    between atoms: _259  and  _261
REMARK  104  A    between atoms: _261  and  _262
REMARK  105  A    between atoms: _261  and  _264
REMARK  106  A    between atoms: _264  and  _265
REMARK  107  A    between atoms: _265  and  _266
REMARK  108  A    between atoms: _269  and  _271
REMARK  109  A    between atoms: _271  and  _272
REMARK  110  A    between atoms: _271  and  _274
REMARK  111  A    between atoms: _274  and  _275
REMARK  112  A    between atoms: _278  and  _280
REMARK  113  A    between atoms: _280  and  _281
REMARK  114  A    between atoms: _280  and  _283
REMARK  115  A    between atoms: _283  and  _284
REMARK  116  A    between atoms: _294  and  _296
REMARK  117  A    between atoms: _296  and  _297
REMARK  118  A    between atoms: _299  and  _301
REMARK  119  A    between atoms: _301  and  _302
REMARK  120  A    between atoms: _301  and  _304
REMARK  121  A    between atoms: _304  and  _305
REMARK  122  A    between atoms: _308  and  _310
REMARK  123  A    between atoms: _310  and  _311
REMARK  124  A    between atoms: _310  and  _313
REMARK  125  A    between atoms: _313  and  _314
REMARK  126  A    between atoms: _316  and  _318
REMARK  127  A    between atoms: _318  and  _319
REMARK  128  A    between atoms: _318  and  _321
REMARK  129  A    between atoms: _321  and  _322
REMARK  130  A    between atoms: _332  and  _334
REMARK  131  A    between atoms: _334  and  _335
REMARK  132  A    between atoms: _334  and  _337
REMARK  133  A    between atoms: _337  and  _338
REMARK  134  A    between atoms: _338  and  _339
REMARK  135  A    between atoms: _339  and  _340
REMARK                            x       y       z     vdW  Elec       q    Type
REMARK                         _______ _______ _______ _____ _____    ______ ____
ROOT
ATOM      1  O   HOH     1       4.623  18.087  17.185  0.00  0.00    +0.000 OA
ENDROOT
TORSDOF 0
REMARK  Name = ../refined-set-2016/1od8/1od8_pocket.pdb
REMARK  135 active torsions:
REMARK  status: ('A' for Active; 'I' for Inactive)
REMARK    1  A    between atoms: _1  and  _3
REMARK    2  A    between atoms: _3  and  _4
REMARK    3  A    between atoms: _7  and  _9
REMARK    4  A    between atoms: _9  and  _10
REMARK    5  A    between atoms: _13  and  _15
REMARK    6  A    between atoms: _15  and  _16
REMARK    7  A    between atoms: _15  and  _18
REMARK    8  A    between atoms: _18  and  _19
REMARK    9  A    between atoms: _19  and  _20
REMARK   10  A    between atoms: _20  and  _21
REMARK   11  A    between atoms: _30  and  _32
REMARK   12  A    between atoms: _32  and  _33
REMARK   13  A    between atoms: _32  and  _35
REMARK   14  A    between atoms: _35  and  _36
REMARK   15  A    between atoms: _39  and  _41
REMARK   16  A    between atoms: _41  and  _42
REMARK   17  A    between atoms: _45  and  _47
REMARK   18  A    between atoms: _47  and  _48
REMARK   19  A    between atoms: _47  and  _50
REMARK   20  A    between atoms: _50  and  _51
REMARK   21  A    between atoms: _51  and  _52
REMARK   22  A    between atoms: _55  and  _57
REMARK   23  A    between atoms: _57  and  _58
REMARK   24  A    between atoms: _57  and  _60
REMARK   25  A    between atoms: _60  and  _61
REMARK   26  A    between atoms: _66  and  _68
REMARK   27  A    between atoms: _68  and  _69
REMARK   28  A    between atoms: _68  and  _71
REMARK   29  A    between atoms: _71  and  _72
REMARK   30  A    between atoms: _72  and  _73
REMARK   31  A    between atoms: _73  and  _74
REMARK   32  A    between atoms: _74  and  _75
REMARK   33  A    between atoms: _79  and  _81
REMARK   34  A    between atoms: _81  and  _82
REMARK   35  A    between atoms: _81  and  _84
REMARK   36  A    between atoms: _84  and  _85
REMARK   37  A    between atoms: _85  and  _86
REMARK   38  A    between atoms: _86  and  _87
REMARK   39  A    between atoms: _96  and  _98
REMARK   40  A    between atoms: _98  and  _99
REMARK   41  A    between atoms: _98  and  _101
REMARK   42  A    between atoms: _101  and  _102
REMARK   43  A    between atoms: _107  and  _109
REMARK   44  A    between atoms: _109  and  _110
REMARK   45  A    between atoms: _109  and  _112
REMARK   46  A    between atoms: _112  and  _113
REMARK   47  A    between atoms: _116  and  _118
REMARK   48  A    between atoms: _118  and  _119
REMARK   49  A    between atoms: _118  and  _121
REMARK   50  A    between atoms: _121  and  _122
REMARK   51  A    between atoms: _132  and  _134
REMARK   52  A    between atoms: _134  and  _135
REMARK   53  A    between atoms: _134  and  _137
REMARK   54  A    between atoms: _137  and  _138
REMARK   55  A    between atoms: _143  and  _145
REMARK   56  A    between atoms: _145  and  _146
REMARK   57  A    between atoms: _145  and  _148
REMARK   58  A    between atoms: _148  and  _149
REMARK   59  A    between atoms: _151  and  _153
REMARK   60  A    between atoms: _153  and  _154
REMARK   61  A    between atoms: _153  and  _156
REMARK   62  A    between atoms: _156  and  _157
REMARK   63  A    between atoms: _157  and  _158
REMARK   64  A    between atoms: _163  and  _165
REMARK   65  A    between atoms: _165  and  _166
REMARK   66  A    between atoms: _165  and  _168
REMARK   67  A    between atoms: _168  and  _169
REMARK   68  A    between atoms: _172  and  _174
REMARK   69  A    between atoms: _174  and  _175
REMARK   70  A    between atoms: _174  and  _177
REMARK   71  A    between atoms: _177  and  _178
REMARK   72  A    between atoms: _183  and  _185
REMARK   73  A    between atoms: _185  and  _186
REMARK   74  A    between atoms: _185  and  _188
REMARK   75  A    between atoms: _188  and  _189
REMARK   76  A    between atoms: _189  and  _190
REMARK   77  A    between atoms: _193  and  _195
REMARK   78  A    between atoms: _195  and  _196
REMARK   79  A    between atoms: _195  and  _198
REMARK   80  A    between atoms: _198  and  _199
REMARK   81  A    between atoms: _204  and  _206
REMARK   82  A    between atoms: _206  and  _207
REMARK   83  A    between atoms: _206  and  _209
REMARK   84  A    between atoms: _209  and  _210
REMARK   85  A    between atoms: _213  and  _215
REMARK   86  A    between atoms: _215  and  _216
REMARK   87  A    between atoms: _215  and  _218
REMARK   88  A    between atoms: _218  and  _219
REMARK   89  A    between atoms: _224  and  _225
REMARK   90  A    between atoms: _227  and  _229
REMARK   91  A    between atoms: _229  and  _230
REMARK   92  A    between atoms: _229  and  _232
REMARK   93  A    between atoms: _232  and  _233
REMARK   94  A    between atoms: _233  and  _234
REMARK   95  A    between atoms: _239  and  _241
REMARK   96  A    between atoms: _241  and  _242
REMARK   97  A    between atoms: _241  and  _244
REMARK   98  A    between atoms: _244  and  _245
REMARK   99  A    between atoms: _250  and  _252
REMARK  100  A    between atoms: _252  and  _253
REMARK  101  A    between atoms: _252  and  _255
REMARK  102  A    between atoms: _255  and  _256
REMARK  103  A    between atoms: _259  and  _261
REMARK  104  A    between atoms: _261  and  _262
REMARK  105  A    between atoms: _261  and  _264
REMARK  106  A    between atoms: _264  and  _265
REMARK  107  A    between atoms: _265  and  _266
REMARK  108  A    between atoms: _269  and  _271
REMARK  109  A    between atoms: _271  and  _272
REMARK  110  A    between atoms: _271  and  _274
REMARK  111  A    between atoms: _274  and  _275
REMARK  112  A    between atoms: _278  and  _280
REMARK  113  A    between atoms: _280  and  _281
REMARK  114  A    between atoms: _280  and  _283
REMARK  115  A    between atoms: _283  and  _284
REMARK  116  A    between atoms: _294  and  _296
REMARK  117  A    between atoms: _296  and  _297
REMARK  118  A    between atoms: _299  and  _301
REMARK  119  A    between atoms: _301  and  _302
REMARK  120  A    between atoms: _301  and  _304
REMARK  121  A    between atoms: _304  and  _305
REMARK  122  A    between atoms: _308  and  _310
REMARK  123  A    between atoms: _310  and  _311
REMARK  124  A    between atoms: _310  and  _313
REMARK  125  A    between atoms: _313  and  _314
REMARK  126  A    between atoms: _316  and  _318
REMARK  127  A    between atoms: _318  and  _319
REMARK  128  A    between atoms: _318  and  _321
REMARK  129  A    between atoms: _321  and  _322
REMARK  130  A    between atoms: _332  and  _334
REMARK  131  A    between atoms: _334  and  _335
REMARK  132  A    between atoms: _334  and  _337
REMARK  133  A    between atoms: _337  and  _338
REMARK  134  A    between atoms: _338  and  _339
REMARK  135  A    between atoms: _339  and  _340
REMARK                            x       y       z     vdW  Elec       q    Type
REMARK                         _______ _______ _______ _____ _____    ______ ____
ROOT
ATOM      1  O   HOH     1       1.062  20.515  19.886  0.00  0.00    +0.000 OA
ENDROOT
TORSDOF 0
REMARK  Name = ../refined-set-2016/1od8/1od8_pocket.pdb
REMARK  135 active torsions:
REMARK  status: ('A' for Active; 'I' for Inactive)
REMARK    1  A    between atoms: _1  and  _3
REMARK    2  A    between atoms: _3  and  _4
REMARK    3  A    between atoms: _7  and  _9
REMARK    4  A    between atoms: _9  and  _10
REMARK    5  A    between atoms: _13  and  _15
REMARK    6  A    between atoms: _15  and  _16
REMARK    7  A    between atoms: _15  and  _18
REMARK    8  A    between atoms: _18  and  _19
REMARK    9  A    between atoms: _19  and  _20
REMARK   10  A    between atoms: _20  and  _21
REMARK   11  A    between atoms: _30  and  _32
REMARK   12  A    between atoms: _32  and  _33
REMARK   13  A    between atoms: _32  and  _35
REMARK   14  A    between atoms: _35  and  _36
REMARK   15  A    between atoms: _39  and  _41
REMARK   16  A    between atoms: _41  and  _42
REMARK   17  A    between atoms: _45  and  _47
REMARK   18  A    between atoms: _47  and  _48
REMARK   19  A    between atoms: _47  and  _50
REMARK   20  A    between atoms: _50  and  _51
REMARK   21  A    between atoms: _51  and  _52
REMARK   22  A    between atoms: _55  and  _57
REMARK   23  A    between atoms: _57  and  _58
REMARK   24  A    between atoms: _57  and  _60
REMARK   25  A    between atoms: _60  and  _61
REMARK   26  A    between atoms: _66  and  _68
REMARK   27  A    between atoms: _68  and  _69
REMARK   28  A    between atoms: _68  and  _71
REMARK   29  A    between atoms: _71  and  _72
REMARK   30  A    between atoms: _72  and  _73
REMARK   31  A    between atoms: _73  and  _74
REMARK   32  A    between atoms: _74  and  _75
REMARK   33  A    between atoms: _79  and  _81
REMARK   34  A    between atoms: _81  and  _82
REMARK   35  A    between atoms: _81  and  _84
REMARK   36  A    between atoms: _84  and  _85
REMARK   37  A    between atoms: _85  and  _86
REMARK   38  A    between atoms: _86  and  _87
REMARK   39  A    between atoms: _96  and  _98
REMARK   40  A    between atoms: _98  and  _99
REMARK   41  A    between atoms: _98  and  _101
REMARK   42  A    between atoms: _101  and  _102
REMARK   43  A    between atoms: _107  and  _109
REMARK   44  A    between atoms: _109  and  _110
REMARK   45  A    between atoms: _109  and  _112
REMARK   46  A    between atoms: _112  and  _113
REMARK   47  A    between atoms: _116  and  _118
REMARK   48  A    between atoms: _118  and  _119
REMARK   49  A    between atoms: _118  and  _121
REMARK   50  A    between atoms: _121  and  _122
REMARK   51  A    between atoms: _132  and  _134
REMARK   52  A    between atoms: _134  and  _135
REMARK   53  A    between atoms: _134  and  _137
REMARK   54  A    between atoms: _137  and  _138
REMARK   55  A    between atoms: _143  and  _145
REMARK   56  A    between atoms: _145  and  _146
REMARK   57  A    between atoms: _145  and  _148
REMARK   58  A    between atoms: _148  and  _149
REMARK   59  A    between atoms: _151  and  _153
REMARK   60  A    between atoms: _153  and  _154
REMARK   61  A    between atoms: _153  and  _156
REMARK   62  A    between atoms: _156  and  _157
REMARK   63  A    between atoms: _157  and  _158
REMARK   64  A    between atoms: _163  and  _165
REMARK   65  A    between atoms: _165  and  _166
REMARK   66  A    between atoms: _165  and  _168
REMARK   67  A    between atoms: _168  and  _169
REMARK   68  A    between atoms: _172  and  _174
REMARK   69  A    between atoms: _174  and  _175
REMARK   70  A    between atoms: _174  and  _177
REMARK   71  A    between atoms: _177  and  _178
REMARK   72  A    between atoms: _183  and  _185
REMARK   73  A    between atoms: _185  and  _186
REMARK   74  A    between atoms: _185  and  _188
REMARK   75  A    between atoms: _188  and  _189
REMARK   76  A    between atoms: _189  and  _190
REMARK   77  A    between atoms: _193  and  _195
REMARK   78  A    between atoms: _195  and  _196
REMARK   79  A    between atoms: _195  and  _198
REMARK   80  A    between atoms: _198  and  _199
REMARK   81  A    between atoms: _204  and  _206
REMARK   82  A    between atoms: _206  and  _207
REMARK   83  A    between atoms: _206  and  _209
REMARK   84  A    between atoms: _209  and  _210
REMARK   85  A    between atoms: _213  and  _215
REMARK   86  A    between atoms: _215  and  _216
REMARK   87  A    between atoms: _215  and  _218
REMARK   88  A    between atoms: _218  and  _219
REMARK   89  A    between atoms: _224  and  _225
REMARK   90  A    between atoms: _227  and  _229
REMARK   91  A    between atoms: _229  and  _230
REMARK   92  A    between atoms: _229  and  _232
REMARK   93  A    between atoms: _232  and  _233
REMARK   94  A    between atoms: _233  and  _234
REMARK   95  A    between atoms: _239  and  _241
REMARK   96  A    between atoms: _241  and  _242
REMARK   97  A    between atoms: _241  and  _244
REMARK   98  A    between atoms: _244  and  _245
REMARK   99  A    between atoms: _250  and  _252
REMARK  100  A    between atoms: _252  and  _253
REMARK  101  A    between atoms: _252  and  _255
REMARK  102  A    between atoms: _255  and  _256
REMARK  103  A    between atoms: _259  and  _261
REMARK  104  A    between atoms: _261  and  _262
REMARK  105  A    between atoms: _261  and  _264
REMARK  106  A    between atoms: _264  and  _265
REMARK  107  A    between atoms: _265  and  _266
REMARK  108  A    between atoms: _269  and  _271
REMARK  109  A    between atoms: _271  and  _272
REMARK  110  A    between atoms: _271  and  _274
REMARK  111  A    between atoms: _274  and  _275
REMARK  112  A    between atoms: _278  and  _280
REMARK  113  A    between atoms: _280  and  _281
REMARK  114  A    between atoms: _280  and  _283
REMARK  115  A    between atoms: _283  and  _284
REMARK  116  A    between atoms: _294  and  _296
REMARK  117  A    between atoms: _296  and  _297
REMARK  118  A    between atoms: _299  and  _301
REMARK  119  A    between atoms: _301  and  _302
REMARK  120  A    between atoms: _301  and  _304
REMARK  121  A    between atoms: _304  and  _305
REMARK  122  A    between atoms: _308  and  _310
REMARK  123  A    between atoms: _310  and  _311
REMARK  124  A    between atoms: _310  and  _313
REMARK  125  A    between atoms: _313  and  _314
REMARK  126  A    between atoms: _316  and  _318
REMARK  127  A    between atoms: _318  and  _319
REMARK  128  A    between atoms: _318  and  _321
REMARK  129  A    between atoms: _321  and  _322
REMARK  130  A    between atoms: _332  and  _334
REMARK  131  A    between atoms: _334  and  _335
REMARK  132  A    between atoms: _334  and  _337
REMARK  133  A    between atoms: _337  and  _338
REMARK  134  A    between atoms: _338  and  _339
REMARK  135  A    between atoms: _339  and  _340
REMARK                            x       y       z     vdW  Elec       q    Type
REMARK                         _______ _______ _______ _____ _____    ______ ____
ROOT
ATOM      1  O   HOH     1       6.992  19.062  23.733  0.00  0.00    +0.000 OA
ENDROOT
TORSDOF 0
REMARK  Name = ../refined-set-2016/1od8/1od8_pocket.pdb
REMARK  135 active torsions:
REMARK  status: ('A' for Active; 'I' for Inactive)
REMARK    1  A    between atoms: _1  and  _3
REMARK    2  A    between atoms: _3  and  _4
REMARK    3  A    between atoms: _7  and  _9
REMARK    4  A    between atoms: _9  and  _10
REMARK    5  A    between atoms: _13  and  _15
REMARK    6  A    between atoms: _15  and  _16
REMARK    7  A    between atoms: _15  and  _18
REMARK    8  A    between atoms: _18  and  _19
REMARK    9  A    between atoms: _19  and  _20
REMARK   10  A    between atoms: _20  and  _21
REMARK   11  A    between atoms: _30  and  _32
REMARK   12  A    between atoms: _32  and  _33
REMARK   13  A    between atoms: _32  and  _35
REMARK   14  A    between atoms: _35  and  _36
REMARK   15  A    between atoms: _39  and  _41
REMARK   16  A    between atoms: _41  and  _42
REMARK   17  A    between atoms: _45  and  _47
REMARK   18  A    between atoms: _47  and  _48
REMARK   19  A    between atoms: _47  and  _50
REMARK   20  A    between atoms: _50  and  _51
REMARK   21  A    between atoms: _51  and  _52
REMARK   22  A    between atoms: _55  and  _57
REMARK   23  A    between atoms: _57  and  _58
REMARK   24  A    between atoms: _57  and  _60
REMARK   25  A    between atoms: _60  and  _61
REMARK   26  A    between atoms: _66  and  _68
REMARK   27  A    between atoms: _68  and  _69
REMARK   28  A    between atoms: _68  and  _71
REMARK   29  A    between atoms: _71  and  _72
REMARK   30  A    between atoms: _72  and  _73
REMARK   31  A    between atoms: _73  and  _74
REMARK   32  A    between atoms: _74  and  _75
REMARK   33  A    between atoms: _79  and  _81
REMARK   34  A    between atoms: _81  and  _82
REMARK   35  A    between atoms: _81  and  _84
REMARK   36  A    between atoms: _84  and  _85
REMARK   37  A    between atoms: _85  and  _86
REMARK   38  A    between atoms: _86  and  _87
REMARK   39  A    between atoms: _96  and  _98
REMARK   40  A    between atoms: _98  and  _99
REMARK   41  A    between atoms: _98  and  _101
REMARK   42  A    between atoms: _101  and  _102
REMARK   43  A    between atoms: _107  and  _109
REMARK   44  A    between atoms: _109  and  _110
REMARK   45  A    between atoms: _109  and  _112
REMARK   46  A    between atoms: _112  and  _113
REMARK   47  A    between atoms: _116  and  _118
REMARK   48  A    between atoms: _118  and  _119
REMARK   49  A    between atoms: _118  and  _121
REMARK   50  A    between atoms: _121  and  _122
REMARK   51  A    between atoms: _132  and  _134
REMARK   52  A    between atoms: _134  and  _135
REMARK   53  A    between atoms: _134  and  _137
REMARK   54  A    between atoms: _137  and  _138
REMARK   55  A    between atoms: _143  and  _145
REMARK   56  A    between atoms: _145  and  _146
REMARK   57  A    between atoms: _145  and  _148
REMARK   58  A    between atoms: _148  and  _149
REMARK   59  A    between atoms: _151  and  _153
REMARK   60  A    between atoms: _153  and  _154
REMARK   61  A    between atoms: _153  and  _156
REMARK   62  A    between atoms: _156  and  _157
REMARK   63  A    between atoms: _157  and  _158
REMARK   64  A    between atoms: _163  and  _165
REMARK   65  A    between atoms: _165  and  _166
REMARK   66  A    between atoms: _165  and  _168
REMARK   67  A    between atoms: _168  and  _169
REMARK   68  A    between atoms: _172  and  _174
REMARK   69  A    between atoms: _174  and  _175
REMARK   70  A    between atoms: _174  and  _177
REMARK   71  A    between atoms: _177  and  _178
REMARK   72  A    between atoms: _183  and  _185
REMARK   73  A    between atoms: _185  and  _186
REMARK   74  A    between atoms: _185  and  _188
REMARK   75  A    between atoms: _188  and  _189
REMARK   76  A    between atoms: _189  and  _190
REMARK   77  A    between atoms: _193  and  _195
REMARK   78  A    between atoms: _195  and  _196
REMARK   79  A    between atoms: _195  and  _198
REMARK   80  A    between atoms: _198  and  _199
REMARK   81  A    between atoms: _204  and  _206
REMARK   82  A    between atoms: _206  and  _207
REMARK   83  A    between atoms: _206  and  _209
REMARK   84  A    between atoms: _209  and  _210
REMARK   85  A    between atoms: _213  and  _215
REMARK   86  A    between atoms: _215  and  _216
REMARK   87  A    between atoms: _215  and  _218
REMARK   88  A    between atoms: _218  and  _219
REMARK   89  A    between atoms: _224  and  _225
REMARK   90  A    between atoms: _227  and  _229
REMARK   91  A    between atoms: _229  and  _230
REMARK   92  A    between atoms: _229  and  _232
REMARK   93  A    between atoms: _232  and  _233
REMARK   94  A    between atoms: _233  and  _234
REMARK   95  A    between atoms: _239  and  _241
REMARK   96  A    between atoms: _241  and  _242
REMARK   97  A    between atoms: _241  and  _244
REMARK   98  A    between atoms: _244  and  _245
REMARK   99  A    between atoms: _250  and  _252
REMARK  100  A    between atoms: _252  and  _253
REMARK  101  A    between atoms: _252  and  _255
REMARK  102  A    between atoms: _255  and  _256
REMARK  103  A    between atoms: _259  and  _261
REMARK  104  A    between atoms: _261  and  _262
REMARK  105  A    between atoms: _261  and  _264
REMARK  106  A    between atoms: _264  and  _265
REMARK  107  A    between atoms: _265  and  _266
REMARK  108  A    between atoms: _269  and  _271
REMARK  109  A    between atoms: _271  and  _272
REMARK  110  A    between atoms: _271  and  _274
REMARK  111  A    between atoms: _274  and  _275
REMARK  112  A    between atoms: _278  and  _280
REMARK  113  A    between atoms: _280  and  _281
REMARK  114  A    between atoms: _280  and  _283
REMARK  115  A    between atoms: _283  and  _284
REMARK  116  A    between atoms: _294  and  _296
REMARK  117  A    between atoms: _296  and  _297
REMARK  118  A    between atoms: _299  and  _301
REMARK  119  A    between atoms: _301  and  _302
REMARK  120  A    between atoms: _301  and  _304
REMARK  121  A    between atoms: _304  and  _305
REMARK  122  A    between atoms: _308  and  _310
REMARK  123  A    between atoms: _310  and  _311
REMARK  124  A    between atoms: _310  and  _313
REMARK  125  A    between atoms: _313  and  _314
REMARK  126  A    between atoms: _316  and  _318
REMARK  127  A    between atoms: _318  and  _319
REMARK  128  A    between atoms: _318  and  _321
REMARK  129  A    between atoms: _321  and  _322
REMARK  130  A    between atoms: _332  and  _334
REMARK  131  A    between atoms: _334  and  _335
REMARK  132  A    between atoms: _334  and  _337
REMARK  133  A    between atoms: _337  and  _338
REMARK  134  A    between atoms: _338  and  _339
REMARK  135  A    between atoms: _339  and  _340
REMARK                            x       y       z     vdW  Elec       q    Type
REMARK                         _______ _______ _______ _____ _____    ______ ____
ROOT
ATOM      1  O   HOH     1      15.820  14.709  17.411  0.00  0.00    +0.000 OA
ENDROOT
TORSDOF 0
REMARK  Name = ../refined-set-2016/1od8/1od8_pocket.pdb
REMARK  135 active torsions:
REMARK  status: ('A' for Active; 'I' for Inactive)
REMARK    1  A    between atoms: _1  and  _3
REMARK    2  A    between atoms: _3  and  _4
REMARK    3  A    between atoms: _7  and  _9
REMARK    4  A    between atoms: _9  and  _10
REMARK    5  A    between atoms: _13  and  _15
REMARK    6  A    between atoms: _15  and  _16
REMARK    7  A    between atoms: _15  and  _18
REMARK    8  A    between atoms: _18  and  _19
REMARK    9  A    between atoms: _19  and  _20
REMARK   10  A    between atoms: _20  and  _21
REMARK   11  A    between atoms: _30  and  _32
REMARK   12  A    between atoms: _32  and  _33
REMARK   13  A    between atoms: _32  and  _35
REMARK   14  A    between atoms: _35  and  _36
REMARK   15  A    between atoms: _39  and  _41
REMARK   16  A    between atoms: _41  and  _42
REMARK   17  A    between atoms: _45  and  _47
REMARK   18  A    between atoms: _47  and  _48
REMARK   19  A    between atoms: _47  and  _50
REMARK   20  A    between atoms: _50  and  _51
REMARK   21  A    between atoms: _51  and  _52
REMARK   22  A    between atoms: _55  and  _57
REMARK   23  A    between atoms: _57  and  _58
REMARK   24  A    between atoms: _57  and  _60
REMARK   25  A    between atoms: _60  and  _61
REMARK   26  A    between atoms: _66  and  _68
REMARK   27  A    between atoms: _68  and  _69
REMARK   28  A    between atoms: _68  and  _71
REMARK   29  A    between atoms: _71  and  _72
REMARK   30  A    between atoms: _72  and  _73
REMARK   31  A    between atoms: _73  and  _74
REMARK   32  A    between atoms: _74  and  _75
REMARK   33  A    between atoms: _79  and  _81
REMARK   34  A    between atoms: _81  and  _82
REMARK   35  A    between atoms: _81  and  _84
REMARK   36  A    between atoms: _84  and  _85
REMARK   37  A    between atoms: _85  and  _86
REMARK   38  A    between atoms: _86  and  _87
REMARK   39  A    between atoms: _96  and  _98
REMARK   40  A    between atoms: _98  and  _99
REMARK   41  A    between atoms: _98  and  _101
REMARK   42  A    between atoms: _101  and  _102
REMARK   43  A    between atoms: _107  and  _109
REMARK   44  A    between atoms: _109  and  _110
REMARK   45  A    between atoms: _109  and  _112
REMARK   46  A    between atoms: _112  and  _113
REMARK   47  A    between atoms: _116  and  _118
REMARK   48  A    between atoms: _118  and  _119
REMARK   49  A    between atoms: _118  and  _121
REMARK   50  A    between atoms: _121  and  _122
REMARK   51  A    between atoms: _132  and  _134
REMARK   52  A    between atoms: _134  and  _135
REMARK   53  A    between atoms: _134  and  _137
REMARK   54  A    between atoms: _137  and  _138
REMARK   55  A    between atoms: _143  and  _145
REMARK   56  A    between atoms: _145  and  _146
REMARK   57  A    between atoms: _145  and  _148
REMARK   58  A    between atoms: _148  and  _149
REMARK   59  A    between atoms: _151  and  _153
REMARK   60  A    between atoms: _153  and  _154
REMARK   61  A    between atoms: _153  and  _156
REMARK   62  A    between atoms: _156  and  _157
REMARK   63  A    between atoms: _157  and  _158
REMARK   64  A    between atoms: _163  and  _165
REMARK   65  A    between atoms: _165  and  _166
REMARK   66  A    between atoms: _165  and  _168
REMARK   67  A    between atoms: _168  and  _169
REMARK   68  A    between atoms: _172  and  _174
REMARK   69  A    between atoms: _174  and  _175
REMARK   70  A    between atoms: _174  and  _177
REMARK   71  A    between atoms: _177  and  _178
REMARK   72  A    between atoms: _183  and  _185
REMARK   73  A    between atoms: _185  and  _186
REMARK   74  A    between atoms: _185  and  _188
REMARK   75  A    between atoms: _188  and  _189
REMARK   76  A    between atoms: _189  and  _190
REMARK   77  A    between atoms: _193  and  _195
REMARK   78  A    between atoms: _195  and  _196
REMARK   79  A    between atoms: _195  and  _198
REMARK   80  A    between atoms: _198  and  _199
REMARK   81  A    between atoms: _204  and  _206
REMARK   82  A    between atoms: _206  and  _207
REMARK   83  A    between atoms: _206  and  _209
REMARK   84  A    between atoms: _209  and  _210
REMARK   85  A    between atoms: _213  and  _215
REMARK   86  A    between atoms: _215  and  _216
REMARK   87  A    between atoms: _215  and  _218
REMARK   88  A    between atoms: _218  and  _219
REMARK   89  A    between atoms: _224  and  _225
REMARK   90  A    between atoms: _227  and  _229
REMARK   91  A    between atoms: _229  and  _230
REMARK   92  A    between atoms: _229  and  _232
REMARK   93  A    between atoms: _232  and  _233
REMARK   94  A    between atoms: _233  and  _234
REMARK   95  A    between atoms: _239  and  _241
REMARK   96  A    between atoms: _241  and  _242
REMARK   97  A    between atoms: _241  and  _244
REMARK   98  A    between atoms: _244  and  _245
REMARK   99  A    between atoms: _250  and  _252
REMARK  100  A    between atoms: _252  and  _253
REMARK  101  A    between atoms: _252  and  _255
REMARK  102  A    between atoms: _255  and  _256
REMARK  103  A    between atoms: _259  and  _261
REMARK  104  A    between atoms: _261  and  _262
REMARK  105  A    between atoms: _261  and  _264
REMARK  106  A    between atoms: _264  and  _265
REMARK  107  A    between atoms: _265  and  _266
REMARK  108  A    between atoms: _269  and  _271
REMARK  109  A    between atoms: _271  and  _272
REMARK  110  A    between atoms: _271  and  _274
REMARK  111  A    between atoms: _274  and  _275
REMARK  112  A    between atoms: _278  and  _280
REMARK  113  A    between atoms: _280  and  _281
REMARK  114  A    between atoms: _280  and  _283
REMARK  115  A    between atoms: _283  and  _284
REMARK  116  A    between atoms: _294  and  _296
REMARK  117  A    between atoms: _296  and  _297
REMARK  118  A    between atoms: _299  and  _301
REMARK  119  A    between atoms: _301  and  _302
REMARK  120  A    between atoms: _301  and  _304
REMARK  121  A    between atoms: _304  and  _305
REMARK  122  A    between atoms: _308  and  _310
REMARK  123  A    between atoms: _310  and  _311
REMARK  124  A    between atoms: _310  and  _313
REMARK  125  A    between atoms: _313  and  _314
REMARK  126  A    between atoms: _316  and  _318
REMARK  127  A    between atoms: _318  and  _319
REMARK  128  A    between atoms: _318  and  _321
REMARK  129  A    between atoms: _321  and  _322
REMARK  130  A    between atoms: _332  and  _334
REMARK  131  A    between atoms: _334  and  _335
REMARK  132  A    between atoms: _334  and  _337
REMARK  133  A    between atoms: _337  and  _338
REMARK  134  A    between atoms: _338  and  _339
REMARK  135  A    between atoms: _339  and  _340
REMARK                            x       y       z     vdW  Elec       q    Type
REMARK                         _______ _______ _______ _____ _____    ______ ____
ROOT
ATOM      1  O   HOH     1       6.914  20.871  14.342  0.00  0.00    +0.000 OA
ENDROOT
TORSDOF 0
REMARK  Name = ../refined-set-2016/1od8/1od8_pocket.pdb
REMARK  135 active torsions:
REMARK  status: ('A' for Active; 'I' for Inactive)
REMARK    1  A    between atoms: _1  and  _3
REMARK    2  A    between atoms: _3  and  _4
REMARK    3  A    between atoms: _7  and  _9
REMARK    4  A    between atoms: _9  and  _10
REMARK    5  A    between atoms: _13  and  _15
REMARK    6  A    between atoms: _15  and  _16
REMARK    7  A    between atoms: _15  and  _18
REMARK    8  A    between atoms: _18  and  _19
REMARK    9  A    between atoms: _19  and  _20
REMARK   10  A    between atoms: _20  and  _21
REMARK   11  A    between atoms: _30  and  _32
REMARK   12  A    between atoms: _32  and  _33
REMARK   13  A    between atoms: _32  and  _35
REMARK   14  A    between atoms: _35  and  _36
REMARK   15  A    between atoms: _39  and  _41
REMARK   16  A    between atoms: _41  and  _42
REMARK   17  A    between atoms: _45  and  _47
REMARK   18  A    between atoms: _47  and  _48
REMARK   19  A    between atoms: _47  and  _50
REMARK   20  A    between atoms: _50  and  _51
REMARK   21  A    between atoms: _51  and  _52
REMARK   22  A    between atoms: _55  and  _57
REMARK   23  A    between atoms: _57  and  _58
REMARK   24  A    between atoms: _57  and  _60
REMARK   25  A    between atoms: _60  and  _61
REMARK   26  A    between atoms: _66  and  _68
REMARK   27  A    between atoms: _68  and  _69
REMARK   28  A    between atoms: _68  and  _71
REMARK   29  A    between atoms: _71  and  _72
REMARK   30  A    between atoms: _72  and  _73
REMARK   31  A    between atoms: _73  and  _74
REMARK   32  A    between atoms: _74  and  _75
REMARK   33  A    between atoms: _79  and  _81
REMARK   34  A    between atoms: _81  and  _82
REMARK   35  A    between atoms: _81  and  _84
REMARK   36  A    between atoms: _84  and  _85
REMARK   37  A    between atoms: _85  and  _86
REMARK   38  A    between atoms: _86  and  _87
REMARK   39  A    between atoms: _96  and  _98
REMARK   40  A    between atoms: _98  and  _99
REMARK   41  A    between atoms: _98  and  _101
REMARK   42  A    between atoms: _101  and  _102
REMARK   43  A    between atoms: _107  and  _109
REMARK   44  A    between atoms: _109  and  _110
REMARK   45  A    between atoms: _109  and  _112
REMARK   46  A    between atoms: _112  and  _113
REMARK   47  A    between atoms: _116  and  _118
REMARK   48  A    between atoms: _118  and  _119
REMARK   49  A    between atoms: _118  and  _121
REMARK   50  A    between atoms: _121  and  _122
REMARK   51  A    between atoms: _132  and  _134
REMARK   52  A    between atoms: _134  and  _135
REMARK   53  A    between atoms: _134  and  _137
REMARK   54  A    between atoms: _137  and  _138
REMARK   55  A    between atoms: _143  and  _145
REMARK   56  A    between atoms: _145  and  _146
REMARK   57  A    between atoms: _145  and  _148
REMARK   58  A    between atoms: _148  and  _149
REMARK   59  A    between atoms: _151  and  _153
REMARK   60  A    between atoms: _153  and  _154
REMARK   61  A    between atoms: _153  and  _156
REMARK   62  A    between atoms: _156  and  _157
REMARK   63  A    between atoms: _157  and  _158
REMARK   64  A    between atoms: _163  and  _165
REMARK   65  A    between atoms: _165  and  _166
REMARK   66  A    between atoms: _165  and  _168
REMARK   67  A    between atoms: _168  and  _169
REMARK   68  A    between atoms: _172  and  _174
REMARK   69  A    between atoms: _174  and  _175
REMARK   70  A    between atoms: _174  and  _177
REMARK   71  A    between atoms: _177  and  _178
REMARK   72  A    between atoms: _183  and  _185
REMARK   73  A    between atoms: _185  and  _186
REMARK   74  A    between atoms: _185  and  _188
REMARK   75  A    between atoms: _188  and  _189
REMARK   76  A    between atoms: _189  and  _190
REMARK   77  A    between atoms: _193  and  _195
REMARK   78  A    between atoms: _195  and  _196
REMARK   79  A    between atoms: _195  and  _198
REMARK   80  A    between atoms: _198  and  _199
REMARK   81  A    between atoms: _204  and  _206
REMARK   82  A    between atoms: _206  and  _207
REMARK   83  A    between atoms: _206  and  _209
REMARK   84  A    between atoms: _209  and  _210
REMARK   85  A    between atoms: _213  and  _215
REMARK   86  A    between atoms: _215  and  _216
REMARK   87  A    between atoms: _215  and  _218
REMARK   88  A    between atoms: _218  and  _219
REMARK   89  A    between atoms: _224  and  _225
REMARK   90  A    between atoms: _227  and  _229
REMARK   91  A    between atoms: _229  and  _230
REMARK   92  A    between atoms: _229  and  _232
REMARK   93  A    between atoms: _232  and  _233
REMARK   94  A    between atoms: _233  and  _234
REMARK   95  A    between atoms: _239  and  _241
REMARK   96  A    between atoms: _241  and  _242
REMARK   97  A    between atoms: _241  and  _244
REMARK   98  A    between atoms: _244  and  _245
REMARK   99  A    between atoms: _250  and  _252
REMARK  100  A    between atoms: _252  and  _253
REMARK  101  A    between atoms: _252  and  _255
REMARK  102  A    between atoms: _255  and  _256
REMARK  103  A    between atoms: _259  and  _261
REMARK  104  A    between atoms: _261  and  _262
REMARK  105  A    between atoms: _261  and  _264
REMARK  106  A    between atoms: _264  and  _265
REMARK  107  A    between atoms: _265  and  _266
REMARK  108  A    between atoms: _269  and  _271
REMARK  109  A    between atoms: _271  and  _272
REMARK  110  A    between atoms: _271  and  _274
REMARK  111  A    between atoms: _274  and  _275
REMARK  112  A    between atoms: _278  and  _280
REMARK  113  A    between atoms: _280  and  _281
REMARK  114  A    between atoms: _280  and  _283
REMARK  115  A    between atoms: _283  and  _284
REMARK  116  A    between atoms: _294  and  _296
REMARK  117  A    between atoms: _296  and  _297
REMARK  118  A    between atoms: _299  and  _301
REMARK  119  A    between atoms: _301  and  _302
REMARK  120  A    between atoms: _301  and  _304
REMARK  121  A    between atoms: _304  and  _305
REMARK  122  A    between atoms: _308  and  _310
REMARK  123  A    between atoms: _310  and  _311
REMARK  124  A    between atoms: _310  and  _313
REMARK  125  A    between atoms: _313  and  _314
REMARK  126  A    between atoms: _316  and  _318
REMARK  127  A    between atoms: _318  and  _319
REMARK  128  A    between atoms: _318  and  _321
REMARK  129  A    between atoms: _321  and  _322
REMARK  130  A    between atoms: _332  and  _334
REMARK  131  A    between atoms: _334  and  _335
REMARK  132  A    between atoms: _334  and  _337
REMARK  133  A    between atoms: _337  and  _338
REMARK  134  A    between atoms: _338  and  _339
REMARK  135  A    between atoms: _339  and  _340
REMARK                            x       y       z     vdW  Elec       q    Type
REMARK                         _______ _______ _______ _____ _____    ______ ____
ROOT
ATOM      1  O   HOH     1       6.255  23.751  11.356  0.00  0.00    +0.000 OA
ENDROOT
TORSDOF 0
REMARK  Name = ../refined-set-2016/1od8/1od8_pocket.pdb
REMARK  135 active torsions:
REMARK  status: ('A' for Active; 'I' for Inactive)
REMARK    1  A    between atoms: _1  and  _3
REMARK    2  A    between atoms: _3  and  _4
REMARK    3  A    between atoms: _7  and  _9
REMARK    4  A    between atoms: _9  and  _10
REMARK    5  A    between atoms: _13  and  _15
REMARK    6  A    between atoms: _15  and  _16
REMARK    7  A    between atoms: _15  and  _18
REMARK    8  A    between atoms: _18  and  _19
REMARK    9  A    between atoms: _19  and  _20
REMARK   10  A    between atoms: _20  and  _21
REMARK   11  A    between atoms: _30  and  _32
REMARK   12  A    between atoms: _32  and  _33
REMARK   13  A    between atoms: _32  and  _35
REMARK   14  A    between atoms: _35  and  _36
REMARK   15  A    between atoms: _39  and  _41
REMARK   16  A    between atoms: _41  and  _42
REMARK   17  A    between atoms: _45  and  _47
REMARK   18  A    between atoms: _47  and  _48
REMARK   19  A    between atoms: _47  and  _50
REMARK   20  A    between atoms: _50  and  _51
REMARK   21  A    between atoms: _51  and  _52
REMARK   22  A    between atoms: _55  and  _57
REMARK   23  A    between atoms: _57  and  _58
REMARK   24  A    between atoms: _57  and  _60
REMARK   25  A    between atoms: _60  and  _61
REMARK   26  A    between atoms: _66  and  _68
REMARK   27  A    between atoms: _68  and  _69
REMARK   28  A    between atoms: _68  and  _71
REMARK   29  A    between atoms: _71  and  _72
REMARK   30  A    between atoms: _72  and  _73
REMARK   31  A    between atoms: _73  and  _74
REMARK   32  A    between atoms: _74  and  _75
REMARK   33  A    between atoms: _79  and  _81
REMARK   34  A    between atoms: _81  and  _82
REMARK   35  A    between atoms: _81  and  _84
REMARK   36  A    between atoms: _84  and  _85
REMARK   37  A    between atoms: _85  and  _86
REMARK   38  A    between atoms: _86  and  _87
REMARK   39  A    between atoms: _96  and  _98
REMARK   40  A    between atoms: _98  and  _99
REMARK   41  A    between atoms: _98  and  _101
REMARK   42  A    between atoms: _101  and  _102
REMARK   43  A    between atoms: _107  and  _109
REMARK   44  A    between atoms: _109  and  _110
REMARK   45  A    between atoms: _109  and  _112
REMARK   46  A    between atoms: _112  and  _113
REMARK   47  A    between atoms: _116  and  _118
REMARK   48  A    between atoms: _118  and  _119
REMARK   49  A    between atoms: _118  and  _121
REMARK   50  A    between atoms: _121  and  _122
REMARK   51  A    between atoms: _132  and  _134
REMARK   52  A    between atoms: _134  and  _135
REMARK   53  A    between atoms: _134  and  _137
REMARK   54  A    between atoms: _137  and  _138
REMARK   55  A    between atoms: _143  and  _145
REMARK   56  A    between atoms: _145  and  _146
REMARK   57  A    between atoms: _145  and  _148
REMARK   58  A    between atoms: _148  and  _149
REMARK   59  A    between atoms: _151  and  _153
REMARK   60  A    between atoms: _153  and  _154
REMARK   61  A    between atoms: _153  and  _156
REMARK   62  A    between atoms: _156  and  _157
REMARK   63  A    between atoms: _157  and  _158
REMARK   64  A    between atoms: _163  and  _165
REMARK   65  A    between atoms: _165  and  _166
REMARK   66  A    between atoms: _165  and  _168
REMARK   67  A    between atoms: _168  and  _169
REMARK   68  A    between atoms: _172  and  _174
REMARK   69  A    between atoms: _174  and  _175
REMARK   70  A    between atoms: _174  and  _177
REMARK   71  A    between atoms: _177  and  _178
REMARK   72  A    between atoms: _183  and  _185
REMARK   73  A    between atoms: _185  and  _186
REMARK   74  A    between atoms: _185  and  _188
REMARK   75  A    between atoms: _188  and  _189
REMARK   76  A    between atoms: _189  and  _190
REMARK   77  A    between atoms: _193  and  _195
REMARK   78  A    between atoms: _195  and  _196
REMARK   79  A    between atoms: _195  and  _198
REMARK   80  A    between atoms: _198  and  _199
REMARK   81  A    between atoms: _204  and  _206
REMARK   82  A    between atoms: _206  and  _207
REMARK   83  A    between atoms: _206  and  _209
REMARK   84  A    between atoms: _209  and  _210
REMARK   85  A    between atoms: _213  and  _215
REMARK   86  A    between atoms: _215  and  _216
REMARK   87  A    between atoms: _215  and  _218
REMARK   88  A    between atoms: _218  and  _219
REMARK   89  A    between atoms: _224  and  _225
REMARK   90  A    between atoms: _227  and  _229
REMARK   91  A    between atoms: _229  and  _230
REMARK   92  A    between atoms: _229  and  _232
REMARK   93  A    between atoms: _232  and  _233
REMARK   94  A    between atoms: _233  and  _234
REMARK   95  A    between atoms: _239  and  _241
REMARK   96  A    between atoms: _241  and  _242
REMARK   97  A    between atoms: _241  and  _244
REMARK   98  A    between atoms: _244  and  _245
REMARK   99  A    between atoms: _250  and  _252
REMARK  100  A    between atoms: _252  and  _253
REMARK  101  A    between atoms: _252  and  _255
REMARK  102  A    between atoms: _255  and  _256
REMARK  103  A    between atoms: _259  and  _261
REMARK  104  A    between atoms: _261  and  _262
REMARK  105  A    between atoms: _261  and  _264
REMARK  106  A    between atoms: _264  and  _265
REMARK  107  A    between atoms: _265  and  _266
REMARK  108  A    between atoms: _269  and  _271
REMARK  109  A    between atoms: _271  and  _272
REMARK  110  A    between atoms: _271  and  _274
REMARK  111  A    between atoms: _274  and  _275
REMARK  112  A    between atoms: _278  and  _280
REMARK  113  A    between atoms: _280  and  _281
REMARK  114  A    between atoms: _280  and  _283
REMARK  115  A    between atoms: _283  and  _284
REMARK  116  A    between atoms: _294  and  _296
REMARK  117  A    between atoms: _296  and  _297
REMARK  118  A    between atoms: _299  and  _301
REMARK  119  A    between atoms: _301  and  _302
REMARK  120  A    between atoms: _301  and  _304
REMARK  121  A    between atoms: _304  and  _305
REMARK  122  A    between atoms: _308  and  _310
REMARK  123  A    between atoms: _310  and  _311
REMARK  124  A    between atoms: _310  and  _313
REMARK  125  A    between atoms: _313  and  _314
REMARK  126  A    between atoms: _316  and  _318
REMARK  127  A    between atoms: _318  and  _319
REMARK  128  A    between atoms: _318  and  _321
REMARK  129  A    between atoms: _321  and  _322
REMARK  130  A    between atoms: _332  and  _334
REMARK  131  A    between atoms: _334  and  _335
REMARK  132  A    between atoms: _334  and  _337
REMARK  133  A    between atoms: _337  and  _338
REMARK  134  A    between atoms: _338  and  _339
REMARK  135  A    between atoms: _339  and  _340
REMARK                            x       y       z     vdW  Elec       q    Type
REMARK                         _______ _______ _______ _____ _____    ______ ____
ROOT
ATOM      1  O   HOH     1      17.068  12.266  17.298  0.00  0.00    +0.000 OA
ENDROOT
TORSDOF 0
REMARK  Name = ../refined-set-2016/1od8/1od8_pocket.pdb
REMARK  135 active torsions:
REMARK  status: ('A' for Active; 'I' for Inactive)
REMARK    1  A    between atoms: _1  and  _3
REMARK    2  A    between atoms: _3  and  _4
REMARK    3  A    between atoms: _7  and  _9
REMARK    4  A    between atoms: _9  and  _10
REMARK    5  A    between atoms: _13  and  _15
REMARK    6  A    between atoms: _15  and  _16
REMARK    7  A    between atoms: _15  and  _18
REMARK    8  A    between atoms: _18  and  _19
REMARK    9  A    between atoms: _19  and  _20
REMARK   10  A    between atoms: _20  and  _21
REMARK   11  A    between atoms: _30  and  _32
REMARK   12  A    between atoms: _32  and  _33
REMARK   13  A    between atoms: _32  and  _35
REMARK   14  A    between atoms: _35  and  _36
REMARK   15  A    between atoms: _39  and  _41
REMARK   16  A    between atoms: _41  and  _42
REMARK   17  A    between atoms: _45  and  _47
REMARK   18  A    between atoms: _47  and  _48
REMARK   19  A    between atoms: _47  and  _50
REMARK   20  A    between atoms: _50  and  _51
REMARK   21  A    between atoms: _51  and  _52
REMARK   22  A    between atoms: _55  and  _57
REMARK   23  A    between atoms: _57  and  _58
REMARK   24  A    between atoms: _57  and  _60
REMARK   25  A    between atoms: _60  and  _61
REMARK   26  A    between atoms: _66  and  _68
REMARK   27  A    between atoms: _68  and  _69
REMARK   28  A    between atoms: _68  and  _71
REMARK   29  A    between atoms: _71  and  _72
REMARK   30  A    between atoms: _72  and  _73
REMARK   31  A    between atoms: _73  and  _74
REMARK   32  A    between atoms: _74  and  _75
REMARK   33  A    between atoms: _79  and  _81
REMARK   34  A    between atoms: _81  and  _82
REMARK   35  A    between atoms: _81  and  _84
REMARK   36  A    between atoms: _84  and  _85
REMARK   37  A    between atoms: _85  and  _86
REMARK   38  A    between atoms: _86  and  _87
REMARK   39  A    between atoms: _96  and  _98
REMARK   40  A    between atoms: _98  and  _99
REMARK   41  A    between atoms: _98  and  _101
REMARK   42  A    between atoms: _101  and  _102
REMARK   43  A    between atoms: _107  and  _109
REMARK   44  A    between atoms: _109  and  _110
REMARK   45  A    between atoms: _109  and  _112
REMARK   46  A    between atoms: _112  and  _113
REMARK   47  A    between atoms: _116  and  _118
REMARK   48  A    between atoms: _118  and  _119
REMARK   49  A    between atoms: _118  and  _121
REMARK   50  A    between atoms: _121  and  _122
REMARK   51  A    between atoms: _132  and  _134
REMARK   52  A    between atoms: _134  and  _135
REMARK   53  A    between atoms: _134  and  _137
REMARK   54  A    between atoms: _137  and  _138
REMARK   55  A    between atoms: _143  and  _145
REMARK   56  A    between atoms: _145  and  _146
REMARK   57  A    between atoms: _145  and  _148
REMARK   58  A    between atoms: _148  and  _149
REMARK   59  A    between atoms: _151  and  _153
REMARK   60  A    between atoms: _153  and  _154
REMARK   61  A    between atoms: _153  and  _156
REMARK   62  A    between atoms: _156  and  _157
REMARK   63  A    between atoms: _157  and  _158
REMARK   64  A    between atoms: _163  and  _165
REMARK   65  A    between atoms: _165  and  _166
REMARK   66  A    between atoms: _165  and  _168
REMARK   67  A    between atoms: _168  and  _169
REMARK   68  A    between atoms: _172  and  _174
REMARK   69  A    between atoms: _174  and  _175
REMARK   70  A    between atoms: _174  and  _177
REMARK   71  A    between atoms: _177  and  _178
REMARK   72  A    between atoms: _183  and  _185
REMARK   73  A    between atoms: _185  and  _186
REMARK   74  A    between atoms: _185  and  _188
REMARK   75  A    between atoms: _188  and  _189
REMARK   76  A    between atoms: _189  and  _190
REMARK   77  A    between atoms: _193  and  _195
REMARK   78  A    between atoms: _195  and  _196
REMARK   79  A    between atoms: _195  and  _198
REMARK   80  A    between atoms: _198  and  _199
REMARK   81  A    between atoms: _204  and  _206
REMARK   82  A    between atoms: _206  and  _207
REMARK   83  A    between atoms: _206  and  _209
REMARK   84  A    between atoms: _209  and  _210
REMARK   85  A    between atoms: _213  and  _215
REMARK   86  A    between atoms: _215  and  _216
REMARK   87  A    between atoms: _215  and  _218
REMARK   88  A    between atoms: _218  and  _219
REMARK   89  A    between atoms: _224  and  _225
REMARK   90  A    between atoms: _227  and  _229
REMARK   91  A    between atoms: _229  and  _230
REMARK   92  A    between atoms: _229  and  _232
REMARK   93  A    between atoms: _232  and  _233
REMARK   94  A    between atoms: _233  and  _234
REMARK   95  A    between atoms: _239  and  _241
REMARK   96  A    between atoms: _241  and  _242
REMARK   97  A    between atoms: _241  and  _244
REMARK   98  A    between atoms: _244  and  _245
REMARK   99  A    between atoms: _250  and  _252
REMARK  100  A    between atoms: _252  and  _253
REMARK  101  A    between atoms: _252  and  _255
REMARK  102  A    between atoms: _255  and  _256
REMARK  103  A    between atoms: _259  and  _261
REMARK  104  A    between atoms: _261  and  _262
REMARK  105  A    between atoms: _261  and  _264
REMARK  106  A    between atoms: _264  and  _265
REMARK  107  A    between atoms: _265  and  _266
REMARK  108  A    between atoms: _269  and  _271
REMARK  109  A    between atoms: _271  and  _272
REMARK  110  A    between atoms: _271  and  _274
REMARK  111  A    between atoms: _274  and  _275
REMARK  112  A    between atoms: _278  and  _280
REMARK  113  A    between atoms: _280  and  _281
REMARK  114  A    between atoms: _280  and  _283
REMARK  115  A    between atoms: _283  and  _284
REMARK  116  A    between atoms: _294  and  _296
REMARK  117  A    between atoms: _296  and  _297
REMARK  118  A    between atoms: _299  and  _301
REMARK  119  A    between atoms: _301  and  _302
REMARK  120  A    between atoms: _301  and  _304
REMARK  121  A    between atoms: _304  and  _305
REMARK  122  A    between atoms: _308  and  _310
REMARK  123  A    between atoms: _310  and  _311
REMARK  124  A    between atoms: _310  and  _313
REMARK  125  A    between atoms: _313  and  _314
REMARK  126  A    between atoms: _316  and  _318
REMARK  127  A    between atoms: _318  and  _319
REMARK  128  A    between atoms: _318  and  _321
REMARK  129  A    between atoms: _321  and  _322
REMARK  130  A    between atoms: _332  and  _334
REMARK  131  A    between atoms: _334  and  _335
REMARK  132  A    between atoms: _334  and  _337
REMARK  133  A    between atoms: _337  and  _338
REMARK  134  A    between atoms: _338  and  _339
REMARK  135  A    between atoms: _339  and  _340
REMARK                            x       y       z     vdW  Elec       q    Type
REMARK                         _______ _______ _______ _____ _____    ______ ____
ROOT
ATOM      1  O   HOH     1       1.963   7.099   9.848  0.00  0.00    +0.000 OA
ENDROOT
TORSDOF 0
REMARK  Name = ../refined-set-2016/1od8/1od8_pocket.pdb
REMARK  135 active torsions:
REMARK  status: ('A' for Active; 'I' for Inactive)
REMARK    1  A    between atoms: _1  and  _3
REMARK    2  A    between atoms: _3  and  _4
REMARK    3  A    between atoms: _7  and  _9
REMARK    4  A    between atoms: _9  and  _10
REMARK    5  A    between atoms: _13  and  _15
REMARK    6  A    between atoms: _15  and  _16
REMARK    7  A    between atoms: _15  and  _18
REMARK    8  A    between atoms: _18  and  _19
REMARK    9  A    between atoms: _19  and  _20
REMARK   10  A    between atoms: _20  and  _21
REMARK   11  A    between atoms: _30  and  _32
REMARK   12  A    between atoms: _32  and  _33
REMARK   13  A    between atoms: _32  and  _35
REMARK   14  A    between atoms: _35  and  _36
REMARK   15  A    between atoms: _39  and  _41
REMARK   16  A    between atoms: _41  and  _42
REMARK   17  A    between atoms: _45  and  _47
REMARK   18  A    between atoms: _47  and  _48
REMARK   19  A    between atoms: _47  and  _50
REMARK   20  A    between atoms: _50  and  _51
REMARK   21  A    between atoms: _51  and  _52
REMARK   22  A    between atoms: _55  and  _57
REMARK   23  A    between atoms: _57  and  _58
REMARK   24  A    between atoms: _57  and  _60
REMARK   25  A    between atoms: _60  and  _61
REMARK   26  A    between atoms: _66  and  _68
REMARK   27  A    between atoms: _68  and  _69
REMARK   28  A    between atoms: _68  and  _71
REMARK   29  A    between atoms: _71  and  _72
REMARK   30  A    between atoms: _72  and  _73
REMARK   31  A    between atoms: _73  and  _74
REMARK   32  A    between atoms: _74  and  _75
REMARK   33  A    between atoms: _79  and  _81
REMARK   34  A    between atoms: _81  and  _82
REMARK   35  A    between atoms: _81  and  _84
REMARK   36  A    between atoms: _84  and  _85
REMARK   37  A    between atoms: _85  and  _86
REMARK   38  A    between atoms: _86  and  _87
REMARK   39  A    between atoms: _96  and  _98
REMARK   40  A    between atoms: _98  and  _99
REMARK   41  A    between atoms: _98  and  _101
REMARK   42  A    between atoms: _101  and  _102
REMARK   43  A    between atoms: _107  and  _109
REMARK   44  A    between atoms: _109  and  _110
REMARK   45  A    between atoms: _109  and  _112
REMARK   46  A    between atoms: _112  and  _113
REMARK   47  A    between atoms: _116  and  _118
REMARK   48  A    between atoms: _118  and  _119
REMARK   49  A    between atoms: _118  and  _121
REMARK   50  A    between atoms: _121  and  _122
REMARK   51  A    between atoms: _132  and  _134
REMARK   52  A    between atoms: _134  and  _135
REMARK   53  A    between atoms: _134  and  _137
REMARK   54  A    between atoms: _137  and  _138
REMARK   55  A    between atoms: _143  and  _145
REMARK   56  A    between atoms: _145  and  _146
REMARK   57  A    between atoms: _145  and  _148
REMARK   58  A    between atoms: _148  and  _149
REMARK   59  A    between atoms: _151  and  _153
REMARK   60  A    between atoms: _153  and  _154
REMARK   61  A    between atoms: _153  and  _156
REMARK   62  A    between atoms: _156  and  _157
REMARK   63  A    between atoms: _157  and  _158
REMARK   64  A    between atoms: _163  and  _165
REMARK   65  A    between atoms: _165  and  _166
REMARK   66  A    between atoms: _165  and  _168
REMARK   67  A    between atoms: _168  and  _169
REMARK   68  A    between atoms: _172  and  _174
REMARK   69  A    between atoms: _174  and  _175
REMARK   70  A    between atoms: _174  and  _177
REMARK   71  A    between atoms: _177  and  _178
REMARK   72  A    between atoms: _183  and  _185
REMARK   73  A    between atoms: _185  and  _186
REMARK   74  A    between atoms: _185  and  _188
REMARK   75  A    between atoms: _188  and  _189
REMARK   76  A    between atoms: _189  and  _190
REMARK   77  A    between atoms: _193  and  _195
REMARK   78  A    between atoms: _195  and  _196
REMARK   79  A    between atoms: _195  and  _198
REMARK   80  A    between atoms: _198  and  _199
REMARK   81  A    between atoms: _204  and  _206
REMARK   82  A    between atoms: _206  and  _207
REMARK   83  A    between atoms: _206  and  _209
REMARK   84  A    between atoms: _209  and  _210
REMARK   85  A    between atoms: _213  and  _215
REMARK   86  A    between atoms: _215  and  _216
REMARK   87  A    between atoms: _215  and  _218
REMARK   88  A    between atoms: _218  and  _219
REMARK   89  A    between atoms: _224  and  _225
REMARK   90  A    between atoms: _227  and  _229
REMARK   91  A    between atoms: _229  and  _230
REMARK   92  A    between atoms: _229  and  _232
REMARK   93  A    between atoms: _232  and  _233
REMARK   94  A    between atoms: _233  and  _234
REMARK   95  A    between atoms: _239  and  _241
REMARK   96  A    between atoms: _241  and  _242
REMARK   97  A    between atoms: _241  and  _244
REMARK   98  A    between atoms: _244  and  _245
REMARK   99  A    between atoms: _250  and  _252
REMARK  100  A    between atoms: _252  and  _253
REMARK  101  A    between atoms: _252  and  _255
REMARK  102  A    between atoms: _255  and  _256
REMARK  103  A    between atoms: _259  and  _261
REMARK  104  A    between atoms: _261  and  _262
REMARK  105  A    between atoms: _261  and  _264
REMARK  106  A    between atoms: _264  and  _265
REMARK  107  A    between atoms: _265  and  _266
REMARK  108  A    between atoms: _269  and  _271
REMARK  109  A    between atoms: _271  and  _272
REMARK  110  A    between atoms: _271  and  _274
REMARK  111  A    between atoms: _274  and  _275
REMARK  112  A    between atoms: _278  and  _280
REMARK  113  A    between atoms: _280  and  _281
REMARK  114  A    between atoms: _280  and  _283
REMARK  115  A    between atoms: _283  and  _284
REMARK  116  A    between atoms: _294  and  _296
REMARK  117  A    between atoms: _296  and  _297
REMARK  118  A    between atoms: _299  and  _301
REMARK  119  A    between atoms: _301  and  _302
REMARK  120  A    between atoms: _301  and  _304
REMARK  121  A    between atoms: _304  and  _305
REMARK  122  A    between atoms: _308  and  _310
REMARK  123  A    between atoms: _310  and  _311
REMARK  124  A    between atoms: _310  and  _313
REMARK  125  A    between atoms: _313  and  _314
REMARK  126  A    between atoms: _316  and  _318
REMARK  127  A    between atoms: _318  and  _319
REMARK  128  A    between atoms: _318  and  _321
REMARK  129  A    between atoms: _321  and  _322
REMARK  130  A    between atoms: _332  and  _334
REMARK  131  A    between atoms: _334  and  _335
REMARK  132  A    between atoms: _334  and  _337
REMARK  133  A    between atoms: _337  and  _338
REMARK  134  A    between atoms: _338  and  _339
REMARK  135  A    between atoms: _339  and  _340
REMARK                            x       y       z     vdW  Elec       q    Type
REMARK                         _______ _______ _______ _____ _____    ______ ____
ROOT
ATOM      1  O   HOH     1       9.970   9.125   9.208  0.00  0.00    +0.000 OA
ENDROOT
TORSDOF 0
REMARK  Name = ../refined-set-2016/1od8/1od8_pocket.pdb
REMARK  135 active torsions:
REMARK  status: ('A' for Active; 'I' for Inactive)
REMARK    1  A    between atoms: _1  and  _3
REMARK    2  A    between atoms: _3  and  _4
REMARK    3  A    between atoms: _7  and  _9
REMARK    4  A    between atoms: _9  and  _10
REMARK    5  A    between atoms: _13  and  _15
REMARK    6  A    between atoms: _15  and  _16
REMARK    7  A    between atoms: _15  and  _18
REMARK    8  A    between atoms: _18  and  _19
REMARK    9  A    between atoms: _19  and  _20
REMARK   10  A    between atoms: _20  and  _21
REMARK   11  A    between atoms: _30  and  _32
REMARK   12  A    between atoms: _32  and  _33
REMARK   13  A    between atoms: _32  and  _35
REMARK   14  A    between atoms: _35  and  _36
REMARK   15  A    between atoms: _39  and  _41
REMARK   16  A    between atoms: _41  and  _42
REMARK   17  A    between atoms: _45  and  _47
REMARK   18  A    between atoms: _47  and  _48
REMARK   19  A    between atoms: _47  and  _50
REMARK   20  A    between atoms: _50  and  _51
REMARK   21  A    between atoms: _51  and  _52
REMARK   22  A    between atoms: _55  and  _57
REMARK   23  A    between atoms: _57  and  _58
REMARK   24  A    between atoms: _57  and  _60
REMARK   25  A    between atoms: _60  and  _61
REMARK   26  A    between atoms: _66  and  _68
REMARK   27  A    between atoms: _68  and  _69
REMARK   28  A    between atoms: _68  and  _71
REMARK   29  A    between atoms: _71  and  _72
REMARK   30  A    between atoms: _72  and  _73
REMARK   31  A    between atoms: _73  and  _74
REMARK   32  A    between atoms: _74  and  _75
REMARK   33  A    between atoms: _79  and  _81
REMARK   34  A    between atoms: _81  and  _82
REMARK   35  A    between atoms: _81  and  _84
REMARK   36  A    between atoms: _84  and  _85
REMARK   37  A    between atoms: _85  and  _86
REMARK   38  A    between atoms: _86  and  _87
REMARK   39  A    between atoms: _96  and  _98
REMARK   40  A    between atoms: _98  and  _99
REMARK   41  A    between atoms: _98  and  _101
REMARK   42  A    between atoms: _101  and  _102
REMARK   43  A    between atoms: _107  and  _109
REMARK   44  A    between atoms: _109  and  _110
REMARK   45  A    between atoms: _109  and  _112
REMARK   46  A    between atoms: _112  and  _113
REMARK   47  A    between atoms: _116  and  _118
REMARK   48  A    between atoms: _118  and  _119
REMARK   49  A    between atoms: _118  and  _121
REMARK   50  A    between atoms: _121  and  _122
REMARK   51  A    between atoms: _132  and  _134
REMARK   52  A    between atoms: _134  and  _135
REMARK   53  A    between atoms: _134  and  _137
REMARK   54  A    between atoms: _137  and  _138
REMARK   55  A    between atoms: _143  and  _145
REMARK   56  A    between atoms: _145  and  _146
REMARK   57  A    between atoms: _145  and  _148
REMARK   58  A    between atoms: _148  and  _149
REMARK   59  A    between atoms: _151  and  _153
REMARK   60  A    between atoms: _153  and  _154
REMARK   61  A    between atoms: _153  and  _156
REMARK   62  A    between atoms: _156  and  _157
REMARK   63  A    between atoms: _157  and  _158
REMARK   64  A    between atoms: _163  and  _165
REMARK   65  A    between atoms: _165  and  _166
REMARK   66  A    between atoms: _165  and  _168
REMARK   67  A    between atoms: _168  and  _169
REMARK   68  A    between atoms: _172  and  _174
REMARK   69  A    between atoms: _174  and  _175
REMARK   70  A    between atoms: _174  and  _177
REMARK   71  A    between atoms: _177  and  _178
REMARK   72  A    between atoms: _183  and  _185
REMARK   73  A    between atoms: _185  and  _186
REMARK   74  A    between atoms: _185  and  _188
REMARK   75  A    between atoms: _188  and  _189
REMARK   76  A    between atoms: _189  and  _190
REMARK   77  A    between atoms: _193  and  _195
REMARK   78  A    between atoms: _195  and  _196
REMARK   79  A    between atoms: _195  and  _198
REMARK   80  A    between atoms: _198  and  _199
REMARK   81  A    between atoms: _204  and  _206
REMARK   82  A    between atoms: _206  and  _207
REMARK   83  A    between atoms: _206  and  _209
REMARK   84  A    between atoms: _209  and  _210
REMARK   85  A    between atoms: _213  and  _215
REMARK   86  A    between atoms: _215  and  _216
REMARK   87  A    between atoms: _215  and  _218
REMARK   88  A    between atoms: _218  and  _219
REMARK   89  A    between atoms: _224  and  _225
REMARK   90  A    between atoms: _227  and  _229
REMARK   91  A    between atoms: _229  and  _230
REMARK   92  A    between atoms: _229  and  _232
REMARK   93  A    between atoms: _232  and  _233
REMARK   94  A    between atoms: _233  and  _234
REMARK   95  A    between atoms: _239  and  _241
REMARK   96  A    between atoms: _241  and  _242
REMARK   97  A    between atoms: _241  and  _244
REMARK   98  A    between atoms: _244  and  _245
REMARK   99  A    between atoms: _250  and  _252
REMARK  100  A    between atoms: _252  and  _253
REMARK  101  A    between atoms: _252  and  _255
REMARK  102  A    between atoms: _255  and  _256
REMARK  103  A    between atoms: _259  and  _261
REMARK  104  A    between atoms: _261  and  _262
REMARK  105  A    between atoms: _261  and  _264
REMARK  106  A    between atoms: _264  and  _265
REMARK  107  A    between atoms: _265  and  _266
REMARK  108  A    between atoms: _269  and  _271
REMARK  109  A    between atoms: _271  and  _272
REMARK  110  A    between atoms: _271  and  _274
REMARK  111  A    between atoms: _274  and  _275
REMARK  112  A    between atoms: _278  and  _280
REMARK  113  A    between atoms: _280  and  _281
REMARK  114  A    between atoms: _280  and  _283
REMARK  115  A    between atoms: _283  and  _284
REMARK  116  A    between atoms: _294  and  _296
REMARK  117  A    between atoms: _296  and  _297
REMARK  118  A    between atoms: _299  and  _301
REMARK  119  A    between atoms: _301  and  _302
REMARK  120  A    between atoms: _301  and  _304
REMARK  121  A    between atoms: _304  and  _305
REMARK  122  A    between atoms: _308  and  _310
REMARK  123  A    between atoms: _310  and  _311
REMARK  124  A    between atoms: _310  and  _313
REMARK  125  A    between atoms: _313  and  _314
REMARK  126  A    between atoms: _316  and  _318
REMARK  127  A    between atoms: _318  and  _319
REMARK  128  A    between atoms: _318  and  _321
REMARK  129  A    between atoms: _321  and  _322
REMARK  130  A    between atoms: _332  and  _334
REMARK  131  A    between atoms: _334  and  _335
REMARK  132  A    between atoms: _334  and  _337
REMARK  133  A    between atoms: _337  and  _338
REMARK  134  A    between atoms: _338  and  _339
REMARK  135  A    between atoms: _339  and  _340
REMARK                            x       y       z     vdW  Elec       q    Type
REMARK                         _______ _______ _______ _____ _____    ______ ____
ROOT
ATOM      1  O   HOH     1       1.076   9.559   9.702  0.00  0.00    +0.000 OA
ENDROOT
TORSDOF 0
REMARK  Name = ../refined-set-2016/1od8/1od8_pocket.pdb
REMARK  135 active torsions:
REMARK  status: ('A' for Active; 'I' for Inactive)
REMARK    1  A    between atoms: _1  and  _3
REMARK    2  A    between atoms: _3  and  _4
REMARK    3  A    between atoms: _7  and  _9
REMARK    4  A    between atoms: _9  and  _10
REMARK    5  A    between atoms: _13  and  _15
REMARK    6  A    between atoms: _15  and  _16
REMARK    7  A    between atoms: _15  and  _18
REMARK    8  A    between atoms: _18  and  _19
REMARK    9  A    between atoms: _19  and  _20
REMARK   10  A    between atoms: _20  and  _21
REMARK   11  A    between atoms: _30  and  _32
REMARK   12  A    between atoms: _32  and  _33
REMARK   13  A    between atoms: _32  and  _35
REMARK   14  A    between atoms: _35  and  _36
REMARK   15  A    between atoms: _39  and  _41
REMARK   16  A    between atoms: _41  and  _42
REMARK   17  A    between atoms: _45  and  _47
REMARK   18  A    between atoms: _47  and  _48
REMARK   19  A    between atoms: _47  and  _50
REMARK   20  A    between atoms: _50  and  _51
REMARK   21  A    between atoms: _51  and  _52
REMARK   22  A    between atoms: _55  and  _57
REMARK   23  A    between atoms: _57  and  _58
REMARK   24  A    between atoms: _57  and  _60
REMARK   25  A    between atoms: _60  and  _61
REMARK   26  A    between atoms: _66  and  _68
REMARK   27  A    between atoms: _68  and  _69
REMARK   28  A    between atoms: _68  and  _71
REMARK   29  A    between atoms: _71  and  _72
REMARK   30  A    between atoms: _72  and  _73
REMARK   31  A    between atoms: _73  and  _74
REMARK   32  A    between atoms: _74  and  _75
REMARK   33  A    between atoms: _79  and  _81
REMARK   34  A    between atoms: _81  and  _82
REMARK   35  A    between atoms: _81  and  _84
REMARK   36  A    between atoms: _84  and  _85
REMARK   37  A    between atoms: _85  and  _86
REMARK   38  A    between atoms: _86  and  _87
REMARK   39  A    between atoms: _96  and  _98
REMARK   40  A    between atoms: _98  and  _99
REMARK   41  A    between atoms: _98  and  _101
REMARK   42  A    between atoms: _101  and  _102
REMARK   43  A    between atoms: _107  and  _109
REMARK   44  A    between atoms: _109  and  _110
REMARK   45  A    between atoms: _109  and  _112
REMARK   46  A    between atoms: _112  and  _113
REMARK   47  A    between atoms: _116  and  _118
REMARK   48  A    between atoms: _118  and  _119
REMARK   49  A    between atoms: _118  and  _121
REMARK   50  A    between atoms: _121  and  _122
REMARK   51  A    between atoms: _132  and  _134
REMARK   52  A    between atoms: _134  and  _135
REMARK   53  A    between atoms: _134  and  _137
REMARK   54  A    between atoms: _137  and  _138
REMARK   55  A    between atoms: _143  and  _145
REMARK   56  A    between atoms: _145  and  _146
REMARK   57  A    between atoms: _145  and  _148
REMARK   58  A    between atoms: _148  and  _149
REMARK   59  A    between atoms: _151  and  _153
REMARK   60  A    between atoms: _153  and  _154
REMARK   61  A    between atoms: _153  and  _156
REMARK   62  A    between atoms: _156  and  _157
REMARK   63  A    between atoms: _157  and  _158
REMARK   64  A    between atoms: _163  and  _165
REMARK   65  A    between atoms: _165  and  _166
REMARK   66  A    between atoms: _165  and  _168
REMARK   67  A    between atoms: _168  and  _169
REMARK   68  A    between atoms: _172  and  _174
REMARK   69  A    between atoms: _174  and  _175
REMARK   70  A    between atoms: _174  and  _177
REMARK   71  A    between atoms: _177  and  _178
REMARK   72  A    between atoms: _183  and  _185
REMARK   73  A    between atoms: _185  and  _186
REMARK   74  A    between atoms: _185  and  _188
REMARK   75  A    between atoms: _188  and  _189
REMARK   76  A    between atoms: _189  and  _190
REMARK   77  A    between atoms: _193  and  _195
REMARK   78  A    between atoms: _195  and  _196
REMARK   79  A    between atoms: _195  and  _198
REMARK   80  A    between atoms: _198  and  _199
REMARK   81  A    between atoms: _204  and  _206
REMARK   82  A    between atoms: _206  and  _207
REMARK   83  A    between atoms: _206  and  _209
REMARK   84  A    between atoms: _209  and  _210
REMARK   85  A    between atoms: _213  and  _215
REMARK   86  A    between atoms: _215  and  _216
REMARK   87  A    between atoms: _215  and  _218
REMARK   88  A    between atoms: _218  and  _219
REMARK   89  A    between atoms: _224  and  _225
REMARK   90  A    between atoms: _227  and  _229
REMARK   91  A    between atoms: _229  and  _230
REMARK   92  A    between atoms: _229  and  _232
REMARK   93  A    between atoms: _232  and  _233
REMARK   94  A    between atoms: _233  and  _234
REMARK   95  A    between atoms: _239  and  _241
REMARK   96  A    between atoms: _241  and  _242
REMARK   97  A    between atoms: _241  and  _244
REMARK   98  A    between atoms: _244  and  _245
REMARK   99  A    between atoms: _250  and  _252
REMARK  100  A    between atoms: _252  and  _253
REMARK  101  A    between atoms: _252  and  _255
REMARK  102  A    between atoms: _255  and  _256
REMARK  103  A    between atoms: _259  and  _261
REMARK  104  A    between atoms: _261  and  _262
REMARK  105  A    between atoms: _261  and  _264
REMARK  106  A    between atoms: _264  and  _265
REMARK  107  A    between atoms: _265  and  _266
REMARK  108  A    between atoms: _269  and  _271
REMARK  109  A    between atoms: _271  and  _272
REMARK  110  A    between atoms: _271  and  _274
REMARK  111  A    between atoms: _274  and  _275
REMARK  112  A    between atoms: _278  and  _280
REMARK  113  A    between atoms: _280  and  _281
REMARK  114  A    between atoms: _280  and  _283
REMARK  115  A    between atoms: _283  and  _284
REMARK  116  A    between atoms: _294  and  _296
REMARK  117  A    between atoms: _296  and  _297
REMARK  118  A    between atoms: _299  and  _301
REMARK  119  A    between atoms: _301  and  _302
REMARK  120  A    between atoms: _301  and  _304
REMARK  121  A    between atoms: _304  and  _305
REMARK  122  A    between atoms: _308  and  _310
REMARK  123  A    between atoms: _310  and  _311
REMARK  124  A    between atoms: _310  and  _313
REMARK  125  A    between atoms: _313  and  _314
REMARK  126  A    between atoms: _316  and  _318
REMARK  127  A    between atoms: _318  and  _319
REMARK  128  A    between atoms: _318  and  _321
REMARK  129  A    between atoms: _321  and  _322
REMARK  130  A    between atoms: _332  and  _334
REMARK  131  A    between atoms: _334  and  _335
REMARK  132  A    between atoms: _334  and  _337
REMARK  133  A    between atoms: _337  and  _338
REMARK  134  A    between atoms: _338  and  _339
REMARK  135  A    between atoms: _339  and  _340
REMARK                            x       y       z     vdW  Elec       q    Type
REMARK                         _______ _______ _______ _____ _____    ______ ____
ROOT
ATOM      1  O   HOH     1       2.553  13.631  10.072  0.00  0.00    +0.000 OA
ENDROOT
TORSDOF 0
REMARK  Name = ../refined-set-2016/1od8/1od8_pocket.pdb
REMARK  135 active torsions:
REMARK  status: ('A' for Active; 'I' for Inactive)
REMARK    1  A    between atoms: _1  and  _3
REMARK    2  A    between atoms: _3  and  _4
REMARK    3  A    between atoms: _7  and  _9
REMARK    4  A    between atoms: _9  and  _10
REMARK    5  A    between atoms: _13  and  _15
REMARK    6  A    between atoms: _15  and  _16
REMARK    7  A    between atoms: _15  and  _18
REMARK    8  A    between atoms: _18  and  _19
REMARK    9  A    between atoms: _19  and  _20
REMARK   10  A    between atoms: _20  and  _21
REMARK   11  A    between atoms: _30  and  _32
REMARK   12  A    between atoms: _32  and  _33
REMARK   13  A    between atoms: _32  and  _35
REMARK   14  A    between atoms: _35  and  _36
REMARK   15  A    between atoms: _39  and  _41
REMARK   16  A    between atoms: _41  and  _42
REMARK   17  A    between atoms: _45  and  _47
REMARK   18  A    between atoms: _47  and  _48
REMARK   19  A    between atoms: _47  and  _50
REMARK   20  A    between atoms: _50  and  _51
REMARK   21  A    between atoms: _51  and  _52
REMARK   22  A    between atoms: _55  and  _57
REMARK   23  A    between atoms: _57  and  _58
REMARK   24  A    between atoms: _57  and  _60
REMARK   25  A    between atoms: _60  and  _61
REMARK   26  A    between atoms: _66  and  _68
REMARK   27  A    between atoms: _68  and  _69
REMARK   28  A    between atoms: _68  and  _71
REMARK   29  A    between atoms: _71  and  _72
REMARK   30  A    between atoms: _72  and  _73
REMARK   31  A    between atoms: _73  and  _74
REMARK   32  A    between atoms: _74  and  _75
REMARK   33  A    between atoms: _79  and  _81
REMARK   34  A    between atoms: _81  and  _82
REMARK   35  A    between atoms: _81  and  _84
REMARK   36  A    between atoms: _84  and  _85
REMARK   37  A    between atoms: _85  and  _86
REMARK   38  A    between atoms: _86  and  _87
REMARK   39  A    between atoms: _96  and  _98
REMARK   40  A    between atoms: _98  and  _99
REMARK   41  A    between atoms: _98  and  _101
REMARK   42  A    between atoms: _101  and  _102
REMARK   43  A    between atoms: _107  and  _109
REMARK   44  A    between atoms: _109  and  _110
REMARK   45  A    between atoms: _109  and  _112
REMARK   46  A    between atoms: _112  and  _113
REMARK   47  A    between atoms: _116  and  _118
REMARK   48  A    between atoms: _118  and  _119
REMARK   49  A    between atoms: _118  and  _121
REMARK   50  A    between atoms: _121  and  _122
REMARK   51  A    between atoms: _132  and  _134
REMARK   52  A    between atoms: _134  and  _135
REMARK   53  A    between atoms: _134  and  _137
REMARK   54  A    between atoms: _137  and  _138
REMARK   55  A    between atoms: _143  and  _145
REMARK   56  A    between atoms: _145  and  _146
REMARK   57  A    between atoms: _145  and  _148
REMARK   58  A    between atoms: _148  and  _149
REMARK   59  A    between atoms: _151  and  _153
REMARK   60  A    between atoms: _153  and  _154
REMARK   61  A    between atoms: _153  and  _156
REMARK   62  A    between atoms: _156  and  _157
REMARK   63  A    between atoms: _157  and  _158
REMARK   64  A    between atoms: _163  and  _165
REMARK   65  A    between atoms: _165  and  _166
REMARK   66  A    between atoms: _165  and  _168
REMARK   67  A    between atoms: _168  and  _169
REMARK   68  A    between atoms: _172  and  _174
REMARK   69  A    between atoms: _174  and  _175
REMARK   70  A    between atoms: _174  and  _177
REMARK   71  A    between atoms: _177  and  _178
REMARK   72  A    between atoms: _183  and  _185
REMARK   73  A    between atoms: _185  and  _186
REMARK   74  A    between atoms: _185  and  _188
REMARK   75  A    between atoms: _188  and  _189
REMARK   76  A    between atoms: _189  and  _190
REMARK   77  A    between atoms: _193  and  _195
REMARK   78  A    between atoms: _195  and  _196
REMARK   79  A    between atoms: _195  and  _198
REMARK   80  A    between atoms: _198  and  _199
REMARK   81  A    between atoms: _204  and  _206
REMARK   82  A    between atoms: _206  and  _207
REMARK   83  A    between atoms: _206  and  _209
REMARK   84  A    between atoms: _209  and  _210
REMARK   85  A    between atoms: _213  and  _215
REMARK   86  A    between atoms: _215  and  _216
REMARK   87  A    between atoms: _215  and  _218
REMARK   88  A    between atoms: _218  and  _219
REMARK   89  A    between atoms: _224  and  _225
REMARK   90  A    between atoms: _227  and  _229
REMARK   91  A    between atoms: _229  and  _230
REMARK   92  A    between atoms: _229  and  _232
REMARK   93  A    between atoms: _232  and  _233
REMARK   94  A    between atoms: _233  and  _234
REMARK   95  A    between atoms: _239  and  _241
REMARK   96  A    between atoms: _241  and  _242
REMARK   97  A    between atoms: _241  and  _244
REMARK   98  A    between atoms: _244  and  _245
REMARK   99  A    between atoms: _250  and  _252
REMARK  100  A    between atoms: _252  and  _253
REMARK  101  A    between atoms: _252  and  _255
REMARK  102  A    between atoms: _255  and  _256
REMARK  103  A    between atoms: _259  and  _261
REMARK  104  A    between atoms: _261  and  _262
REMARK  105  A    between atoms: _261  and  _264
REMARK  106  A    between atoms: _264  and  _265
REMARK  107  A    between atoms: _265  and  _266
REMARK  108  A    between atoms: _269  and  _271
REMARK  109  A    between atoms: _271  and  _272
REMARK  110  A    between atoms: _271  and  _274
REMARK  111  A    between atoms: _274  and  _275
REMARK  112  A    between atoms: _278  and  _280
REMARK  113  A    between atoms: _280  and  _281
REMARK  114  A    between atoms: _280  and  _283
REMARK  115  A    between atoms: _283  and  _284
REMARK  116  A    between atoms: _294  and  _296
REMARK  117  A    between atoms: _296  and  _297
REMARK  118  A    between atoms: _299  and  _301
REMARK  119  A    between atoms: _301  and  _302
REMARK  120  A    between atoms: _301  and  _304
REMARK  121  A    between atoms: _304  and  _305
REMARK  122  A    between atoms: _308  and  _310
REMARK  123  A    between atoms: _310  and  _311
REMARK  124  A    between atoms: _310  and  _313
REMARK  125  A    between atoms: _313  and  _314
REMARK  126  A    between atoms: _316  and  _318
REMARK  127  A    between atoms: _318  and  _319
REMARK  128  A    between atoms: _318  and  _321
REMARK  129  A    between atoms: _321  and  _322
REMARK  130  A    between atoms: _332  and  _334
REMARK  131  A    between atoms: _334  and  _335
REMARK  132  A    between atoms: _334  and  _337
REMARK  133  A    between atoms: _337  and  _338
REMARK  134  A    between atoms: _338  and  _339
REMARK  135  A    between atoms: _339  and  _340
REMARK                            x       y       z     vdW  Elec       q    Type
REMARK                         _______ _______ _______ _____ _____    ______ ____
ROOT
ATOM      1  O   HOH     1       3.490  15.730   8.616  0.00  0.00    +0.000 OA
ENDROOT
TORSDOF 0
REMARK  Name = ../refined-set-2016/1od8/1od8_pocket.pdb
REMARK  135 active torsions:
REMARK  status: ('A' for Active; 'I' for Inactive)
REMARK    1  A    between atoms: _1  and  _3
REMARK    2  A    between atoms: _3  and  _4
REMARK    3  A    between atoms: _7  and  _9
REMARK    4  A    between atoms: _9  and  _10
REMARK    5  A    between atoms: _13  and  _15
REMARK    6  A    between atoms: _15  and  _16
REMARK    7  A    between atoms: _15  and  _18
REMARK    8  A    between atoms: _18  and  _19
REMARK    9  A    between atoms: _19  and  _20
REMARK   10  A    between atoms: _20  and  _21
REMARK   11  A    between atoms: _30  and  _32
REMARK   12  A    between atoms: _32  and  _33
REMARK   13  A    between atoms: _32  and  _35
REMARK   14  A    between atoms: _35  and  _36
REMARK   15  A    between atoms: _39  and  _41
REMARK   16  A    between atoms: _41  and  _42
REMARK   17  A    between atoms: _45  and  _47
REMARK   18  A    between atoms: _47  and  _48
REMARK   19  A    between atoms: _47  and  _50
REMARK   20  A    between atoms: _50  and  _51
REMARK   21  A    between atoms: _51  and  _52
REMARK   22  A    between atoms: _55  and  _57
REMARK   23  A    between atoms: _57  and  _58
REMARK   24  A    between atoms: _57  and  _60
REMARK   25  A    between atoms: _60  and  _61
REMARK   26  A    between atoms: _66  and  _68
REMARK   27  A    between atoms: _68  and  _69
REMARK   28  A    between atoms: _68  and  _71
REMARK   29  A    between atoms: _71  and  _72
REMARK   30  A    between atoms: _72  and  _73
REMARK   31  A    between atoms: _73  and  _74
REMARK   32  A    between atoms: _74  and  _75
REMARK   33  A    between atoms: _79  and  _81
REMARK   34  A    between atoms: _81  and  _82
REMARK   35  A    between atoms: _81  and  _84
REMARK   36  A    between atoms: _84  and  _85
REMARK   37  A    between atoms: _85  and  _86
REMARK   38  A    between atoms: _86  and  _87
REMARK   39  A    between atoms: _96  and  _98
REMARK   40  A    between atoms: _98  and  _99
REMARK   41  A    between atoms: _98  and  _101
REMARK   42  A    between atoms: _101  and  _102
REMARK   43  A    between atoms: _107  and  _109
REMARK   44  A    between atoms: _109  and  _110
REMARK   45  A    between atoms: _109  and  _112
REMARK   46  A    between atoms: _112  and  _113
REMARK   47  A    between atoms: _116  and  _118
REMARK   48  A    between atoms: _118  and  _119
REMARK   49  A    between atoms: _118  and  _121
REMARK   50  A    between atoms: _121  and  _122
REMARK   51  A    between atoms: _132  and  _134
REMARK   52  A    between atoms: _134  and  _135
REMARK   53  A    between atoms: _134  and  _137
REMARK   54  A    between atoms: _137  and  _138
REMARK   55  A    between atoms: _143  and  _145
REMARK   56  A    between atoms: _145  and  _146
REMARK   57  A    between atoms: _145  and  _148
REMARK   58  A    between atoms: _148  and  _149
REMARK   59  A    between atoms: _151  and  _153
REMARK   60  A    between atoms: _153  and  _154
REMARK   61  A    between atoms: _153  and  _156
REMARK   62  A    between atoms: _156  and  _157
REMARK   63  A    between atoms: _157  and  _158
REMARK   64  A    between atoms: _163  and  _165
REMARK   65  A    between atoms: _165  and  _166
REMARK   66  A    between atoms: _165  and  _168
REMARK   67  A    between atoms: _168  and  _169
REMARK   68  A    between atoms: _172  and  _174
REMARK   69  A    between atoms: _174  and  _175
REMARK   70  A    between atoms: _174  and  _177
REMARK   71  A    between atoms: _177  and  _178
REMARK   72  A    between atoms: _183  and  _185
REMARK   73  A    between atoms: _185  and  _186
REMARK   74  A    between atoms: _185  and  _188
REMARK   75  A    between atoms: _188  and  _189
REMARK   76  A    between atoms: _189  and  _190
REMARK   77  A    between atoms: _193  and  _195
REMARK   78  A    between atoms: _195  and  _196
REMARK   79  A    between atoms: _195  and  _198
REMARK   80  A    between atoms: _198  and  _199
REMARK   81  A    between atoms: _204  and  _206
REMARK   82  A    between atoms: _206  and  _207
REMARK   83  A    between atoms: _206  and  _209
REMARK   84  A    between atoms: _209  and  _210
REMARK   85  A    between atoms: _213  and  _215
REMARK   86  A    between atoms: _215  and  _216
REMARK   87  A    between atoms: _215  and  _218
REMARK   88  A    between atoms: _218  and  _219
REMARK   89  A    between atoms: _224  and  _225
REMARK   90  A    between atoms: _227  and  _229
REMARK   91  A    between atoms: _229  and  _230
REMARK   92  A    between atoms: _229  and  _232
REMARK   93  A    between atoms: _232  and  _233
REMARK   94  A    between atoms: _233  and  _234
REMARK   95  A    between atoms: _239  and  _241
REMARK   96  A    between atoms: _241  and  _242
REMARK   97  A    between atoms: _241  and  _244
REMARK   98  A    between atoms: _244  and  _245
REMARK   99  A    between atoms: _250  and  _252
REMARK  100  A    between atoms: _252  and  _253
REMARK  101  A    between atoms: _252  and  _255
REMARK  102  A    between atoms: _255  and  _256
REMARK  103  A    between atoms: _259  and  _261
REMARK  104  A    between atoms: _261  and  _262
REMARK  105  A    between atoms: _261  and  _264
REMARK  106  A    between atoms: _264  and  _265
REMARK  107  A    between atoms: _265  and  _266
REMARK  108  A    between atoms: _269  and  _271
REMARK  109  A    between atoms: _271  and  _272
REMARK  110  A    between atoms: _271  and  _274
REMARK  111  A    between atoms: _274  and  _275
REMARK  112  A    between atoms: _278  and  _280
REMARK  113  A    between atoms: _280  and  _281
REMARK  114  A    between atoms: _280  and  _283
REMARK  115  A    between atoms: _283  and  _284
REMARK  116  A    between atoms: _294  and  _296
REMARK  117  A    between atoms: _296  and  _297
REMARK  118  A    between atoms: _299  and  _301
REMARK  119  A    between atoms: _301  and  _302
REMARK  120  A    between atoms: _301  and  _304
REMARK  121  A    between atoms: _304  and  _305
REMARK  122  A    between atoms: _308  and  _310
REMARK  123  A    between atoms: _310  and  _311
REMARK  124  A    between atoms: _310  and  _313
REMARK  125  A    between atoms: _313  and  _314
REMARK  126  A    between atoms: _316  and  _318
REMARK  127  A    between atoms: _318  and  _319
REMARK  128  A    between atoms: _318  and  _321
REMARK  129  A    between atoms: _321  and  _322
REMARK  130  A    between atoms: _332  and  _334
REMARK  131  A    between atoms: _334  and  _335
REMARK  132  A    between atoms: _334  and  _337
REMARK  133  A    between atoms: _337  and  _338
REMARK  134  A    between atoms: _338  and  _339
REMARK  135  A    between atoms: _339  and  _340
REMARK                            x       y       z     vdW  Elec       q    Type
REMARK                         _______ _______ _______ _____ _____    ______ ____
ROOT
ATOM      1  O   HOH     1       4.050  18.289   9.809  0.00  0.00    +0.000 OA
ENDROOT
TORSDOF 0
REMARK  Name = ../refined-set-2016/1od8/1od8_pocket.pdb
REMARK  135 active torsions:
REMARK  status: ('A' for Active; 'I' for Inactive)
REMARK    1  A    between atoms: _1  and  _3
REMARK    2  A    between atoms: _3  and  _4
REMARK    3  A    between atoms: _7  and  _9
REMARK    4  A    between atoms: _9  and  _10
REMARK    5  A    between atoms: _13  and  _15
REMARK    6  A    between atoms: _15  and  _16
REMARK    7  A    between atoms: _15  and  _18
REMARK    8  A    between atoms: _18  and  _19
REMARK    9  A    between atoms: _19  and  _20
REMARK   10  A    between atoms: _20  and  _21
REMARK   11  A    between atoms: _30  and  _32
REMARK   12  A    between atoms: _32  and  _33
REMARK   13  A    between atoms: _32  and  _35
REMARK   14  A    between atoms: _35  and  _36
REMARK   15  A    between atoms: _39  and  _41
REMARK   16  A    between atoms: _41  and  _42
REMARK   17  A    between atoms: _45  and  _47
REMARK   18  A    between atoms: _47  and  _48
REMARK   19  A    between atoms: _47  and  _50
REMARK   20  A    between atoms: _50  and  _51
REMARK   21  A    between atoms: _51  and  _52
REMARK   22  A    between atoms: _55  and  _57
REMARK   23  A    between atoms: _57  and  _58
REMARK   24  A    between atoms: _57  and  _60
REMARK   25  A    between atoms: _60  and  _61
REMARK   26  A    between atoms: _66  and  _68
REMARK   27  A    between atoms: _68  and  _69
REMARK   28  A    between atoms: _68  and  _71
REMARK   29  A    between atoms: _71  and  _72
REMARK   30  A    between atoms: _72  and  _73
REMARK   31  A    between atoms: _73  and  _74
REMARK   32  A    between atoms: _74  and  _75
REMARK   33  A    between atoms: _79  and  _81
REMARK   34  A    between atoms: _81  and  _82
REMARK   35  A    between atoms: _81  and  _84
REMARK   36  A    between atoms: _84  and  _85
REMARK   37  A    between atoms: _85  and  _86
REMARK   38  A    between atoms: _86  and  _87
REMARK   39  A    between atoms: _96  and  _98
REMARK   40  A    between atoms: _98  and  _99
REMARK   41  A    between atoms: _98  and  _101
REMARK   42  A    between atoms: _101  and  _102
REMARK   43  A    between atoms: _107  and  _109
REMARK   44  A    between atoms: _109  and  _110
REMARK   45  A    between atoms: _109  and  _112
REMARK   46  A    between atoms: _112  and  _113
REMARK   47  A    between atoms: _116  and  _118
REMARK   48  A    between atoms: _118  and  _119
REMARK   49  A    between atoms: _118  and  _121
REMARK   50  A    between atoms: _121  and  _122
REMARK   51  A    between atoms: _132  and  _134
REMARK   52  A    between atoms: _134  and  _135
REMARK   53  A    between atoms: _134  and  _137
REMARK   54  A    between atoms: _137  and  _138
REMARK   55  A    between atoms: _143  and  _145
REMARK   56  A    between atoms: _145  and  _146
REMARK   57  A    between atoms: _145  and  _148
REMARK   58  A    between atoms: _148  and  _149
REMARK   59  A    between atoms: _151  and  _153
REMARK   60  A    between atoms: _153  and  _154
REMARK   61  A    between atoms: _153  and  _156
REMARK   62  A    between atoms: _156  and  _157
REMARK   63  A    between atoms: _157  and  _158
REMARK   64  A    between atoms: _163  and  _165
REMARK   65  A    between atoms: _165  and  _166
REMARK   66  A    between atoms: _165  and  _168
REMARK   67  A    between atoms: _168  and  _169
REMARK   68  A    between atoms: _172  and  _174
REMARK   69  A    between atoms: _174  and  _175
REMARK   70  A    between atoms: _174  and  _177
REMARK   71  A    between atoms: _177  and  _178
REMARK   72  A    between atoms: _183  and  _185
REMARK   73  A    between atoms: _185  and  _186
REMARK   74  A    between atoms: _185  and  _188
REMARK   75  A    between atoms: _188  and  _189
REMARK   76  A    between atoms: _189  and  _190
REMARK   77  A    between atoms: _193  and  _195
REMARK   78  A    between atoms: _195  and  _196
REMARK   79  A    between atoms: _195  and  _198
REMARK   80  A    between atoms: _198  and  _199
REMARK   81  A    between atoms: _204  and  _206
REMARK   82  A    between atoms: _206  and  _207
REMARK   83  A    between atoms: _206  and  _209
REMARK   84  A    between atoms: _209  and  _210
REMARK   85  A    between atoms: _213  and  _215
REMARK   86  A    between atoms: _215  and  _216
REMARK   87  A    between atoms: _215  and  _218
REMARK   88  A    between atoms: _218  and  _219
REMARK   89  A    between atoms: _224  and  _225
REMARK   90  A    between atoms: _227  and  _229
REMARK   91  A    between atoms: _229  and  _230
REMARK   92  A    between atoms: _229  and  _232
REMARK   93  A    between atoms: _232  and  _233
REMARK   94  A    between atoms: _233  and  _234
REMARK   95  A    between atoms: _239  and  _241
REMARK   96  A    between atoms: _241  and  _242
REMARK   97  A    between atoms: _241  and  _244
REMARK   98  A    between atoms: _244  and  _245
REMARK   99  A    between atoms: _250  and  _252
REMARK  100  A    between atoms: _252  and  _253
REMARK  101  A    between atoms: _252  and  _255
REMARK  102  A    between atoms: _255  and  _256
REMARK  103  A    between atoms: _259  and  _261
REMARK  104  A    between atoms: _261  and  _262
REMARK  105  A    between atoms: _261  and  _264
REMARK  106  A    between atoms: _264  and  _265
REMARK  107  A    between atoms: _265  and  _266
REMARK  108  A    between atoms: _269  and  _271
REMARK  109  A    between atoms: _271  and  _272
REMARK  110  A    between atoms: _271  and  _274
REMARK  111  A    between atoms: _274  and  _275
REMARK  112  A    between atoms: _278  and  _280
REMARK  113  A    between atoms: _280  and  _281
REMARK  114  A    between atoms: _280  and  _283
REMARK  115  A    between atoms: _283  and  _284
REMARK  116  A    between atoms: _294  and  _296
REMARK  117  A    between atoms: _296  and  _297
REMARK  118  A    between atoms: _299  and  _301
REMARK  119  A    between atoms: _301  and  _302
REMARK  120  A    between atoms: _301  and  _304
REMARK  121  A    between atoms: _304  and  _305
REMARK  122  A    between atoms: _308  and  _310
REMARK  123  A    between atoms: _310  and  _311
REMARK  124  A    between atoms: _310  and  _313
REMARK  125  A    between atoms: _313  and  _314
REMARK  126  A    between atoms: _316  and  _318
REMARK  127  A    between atoms: _318  and  _319
REMARK  128  A    between atoms: _318  and  _321
REMARK  129  A    between atoms: _321  and  _322
REMARK  130  A    between atoms: _332  and  _334
REMARK  131  A    between atoms: _334  and  _335
REMARK  132  A    between atoms: _334  and  _337
REMARK  133  A    between atoms: _337  and  _338
REMARK  134  A    between atoms: _338  and  _339
REMARK  135  A    between atoms: _339  and  _340
REMARK                            x       y       z     vdW  Elec       q    Type
REMARK                         _______ _______ _______ _____ _____    ______ ____
ROOT
ATOM      1  O   UNL     1       3.522   9.583  13.990  0.00  0.00    +0.000 OA
ATOM      2  O   UNL     1       2.932   9.436  14.776  0.00  0.00    +0.000 OA
ENDROOT
TORSDOF 0
REMARK  Name = ../refined-set-2016/1od8/1od8_pocket.pdb
REMARK  135 active torsions:
REMARK  status: ('A' for Active; 'I' for Inactive)
REMARK    1  A    between atoms: _1  and  _3
REMARK    2  A    between atoms: _3  and  _4
REMARK    3  A    between atoms: _7  and  _9
REMARK    4  A    between atoms: _9  and  _10
REMARK    5  A    between atoms: _13  and  _15
REMARK    6  A    between atoms: _15  and  _16
REMARK    7  A    between atoms: _15  and  _18
REMARK    8  A    between atoms: _18  and  _19
REMARK    9  A    between atoms: _19  and  _20
REMARK   10  A    between atoms: _20  and  _21
REMARK   11  A    between atoms: _30  and  _32
REMARK   12  A    between atoms: _32  and  _33
REMARK   13  A    between atoms: _32  and  _35
REMARK   14  A    between atoms: _35  and  _36
REMARK   15  A    between atoms: _39  and  _41
REMARK   16  A    between atoms: _41  and  _42
REMARK   17  A    between atoms: _45  and  _47
REMARK   18  A    between atoms: _47  and  _48
REMARK   19  A    between atoms: _47  and  _50
REMARK   20  A    between atoms: _50  and  _51
REMARK   21  A    between atoms: _51  and  _52
REMARK   22  A    between atoms: _55  and  _57
REMARK   23  A    between atoms: _57  and  _58
REMARK   24  A    between atoms: _57  and  _60
REMARK   25  A    between atoms: _60  and  _61
REMARK   26  A    between atoms: _66  and  _68
REMARK   27  A    between atoms: _68  and  _69
REMARK   28  A    between atoms: _68  and  _71
REMARK   29  A    between atoms: _71  and  _72
REMARK   30  A    between atoms: _72  and  _73
REMARK   31  A    between atoms: _73  and  _74
REMARK   32  A    between atoms: _74  and  _75
REMARK   33  A    between atoms: _79  and  _81
REMARK   34  A    between atoms: _81  and  _82
REMARK   35  A    between atoms: _81  and  _84
REMARK   36  A    between atoms: _84  and  _85
REMARK   37  A    between atoms: _85  and  _86
REMARK   38  A    between atoms: _86  and  _87
REMARK   39  A    between atoms: _96  and  _98
REMARK   40  A    between atoms: _98  and  _99
REMARK   41  A    between atoms: _98  and  _101
REMARK   42  A    between atoms: _101  and  _102
REMARK   43  A    between atoms: _107  and  _109
REMARK   44  A    between atoms: _109  and  _110
REMARK   45  A    between atoms: _109  and  _112
REMARK   46  A    between atoms: _112  and  _113
REMARK   47  A    between atoms: _116  and  _118
REMARK   48  A    between atoms: _118  and  _119
REMARK   49  A    between atoms: _118  and  _121
REMARK   50  A    between atoms: _121  and  _122
REMARK   51  A    between atoms: _132  and  _134
REMARK   52  A    between atoms: _134  and  _135
REMARK   53  A    between atoms: _134  and  _137
REMARK   54  A    between atoms: _137  and  _138
REMARK   55  A    between atoms: _143  and  _145
REMARK   56  A    between atoms: _145  and  _146
REMARK   57  A    between atoms: _145  and  _148
REMARK   58  A    between atoms: _148  and  _149
REMARK   59  A    between atoms: _151  and  _153
REMARK   60  A    between atoms: _153  and  _154
REMARK   61  A    between atoms: _153  and  _156
REMARK   62  A    between atoms: _156  and  _157
REMARK   63  A    between atoms: _157  and  _158
REMARK   64  A    between atoms: _163  and  _165
REMARK   65  A    between atoms: _165  and  _166
REMARK   66  A    between atoms: _165  and  _168
REMARK   67  A    between atoms: _168  and  _169
REMARK   68  A    between atoms: _172  and  _174
REMARK   69  A    between atoms: _174  and  _175
REMARK   70  A    between atoms: _174  and  _177
REMARK   71  A    between atoms: _177  and  _178
REMARK   72  A    between atoms: _183  and  _185
REMARK   73  A    between atoms: _185  and  _186
REMARK   74  A    between atoms: _185  and  _188
REMARK   75  A    between atoms: _188  and  _189
REMARK   76  A    between atoms: _189  and  _190
REMARK   77  A    between atoms: _193  and  _195
REMARK   78  A    between atoms: _195  and  _196
REMARK   79  A    between atoms: _195  and  _198
REMARK   80  A    between atoms: _198  and  _199
REMARK   81  A    between atoms: _204  and  _206
REMARK   82  A    between atoms: _206  and  _207
REMARK   83  A    between atoms: _206  and  _209
REMARK   84  A    between atoms: _209  and  _210
REMARK   85  A    between atoms: _213  and  _215
REMARK   86  A    between atoms: _215  and  _216
REMARK   87  A    between atoms: _215  and  _218
REMARK   88  A    between atoms: _218  and  _219
REMARK   89  A    between atoms: _224  and  _225
REMARK   90  A    between atoms: _227  and  _229
REMARK   91  A    between atoms: _229  and  _230
REMARK   92  A    between atoms: _229  and  _232
REMARK   93  A    between atoms: _232  and  _233
REMARK   94  A    between atoms: _233  and  _234
REMARK   95  A    between atoms: _239  and  _241
REMARK   96  A    between atoms: _241  and  _242
REMARK   97  A    between atoms: _241  and  _244
REMARK   98  A    between atoms: _244  and  _245
REMARK   99  A    between atoms: _250  and  _252
REMARK  100  A    between atoms: _252  and  _253
REMARK  101  A    between atoms: _252  and  _255
REMARK  102  A    between atoms: _255  and  _256
REMARK  103  A    between atoms: _259  and  _261
REMARK  104  A    between atoms: _261  and  _262
REMARK  105  A    between atoms: _261  and  _264
REMARK  106  A    between atoms: _264  and  _265
REMARK  107  A    between atoms: _265  and  _266
REMARK  108  A    between atoms: _269  and  _271
REMARK  109  A    between atoms: _271  and  _272
REMARK  110  A    between atoms: _271  and  _274
REMARK  111  A    between atoms: _274  and  _275
REMARK  112  A    between atoms: _278  and  _280
REMARK  113  A    between atoms: _280  and  _281
REMARK  114  A    between atoms: _280  and  _283
REMARK  115  A    between atoms: _283  and  _284
REMARK  116  A    between atoms: _294  and  _296
REMARK  117  A    between atoms: _296  and  _297
REMARK  118  A    between atoms: _299  and  _301
REMARK  119  A    between atoms: _301  and  _302
REMARK  120  A    between atoms: _301  and  _304
REMARK  121  A    between atoms: _304  and  _305
REMARK  122  A    between atoms: _308  and  _310
REMARK  123  A    between atoms: _310  and  _311
REMARK  124  A    between atoms: _310  and  _313
REMARK  125  A    between atoms: _313  and  _314
REMARK  126  A    between atoms: _316  and  _318
REMARK  127  A    between atoms: _318  and  _319
REMARK  128  A    between atoms: _318  and  _321
REMARK  129  A    between atoms: _321  and  _322
REMARK  130  A    between atoms: _332  and  _334
REMARK  131  A    between atoms: _334  and  _335
REMARK  132  A    between atoms: _334  and  _337
REMARK  133  A    between atoms: _337  and  _338
REMARK  134  A    between atoms: _338  and  _339
REMARK  135  A    between atoms: _339  and  _340
REMARK                            x       y       z     vdW  Elec       q    Type
REMARK                         _______ _______ _______ _____ _____    ______ ____
ROOT
ATOM      1  O   HOH     1       1.295  10.683  15.960  0.00  0.00    +0.000 OA
ENDROOT
TORSDOF 0
REMARK  Name = ../refined-set-2016/1od8/1od8_pocket.pdb
REMARK  135 active torsions:
REMARK  status: ('A' for Active; 'I' for Inactive)
REMARK    1  A    between atoms: _1  and  _3
REMARK    2  A    between atoms: _3  and  _4
REMARK    3  A    between atoms: _7  and  _9
REMARK    4  A    between atoms: _9  and  _10
REMARK    5  A    between atoms: _13  and  _15
REMARK    6  A    between atoms: _15  and  _16
REMARK    7  A    between atoms: _15  and  _18
REMARK    8  A    between atoms: _18  and  _19
REMARK    9  A    between atoms: _19  and  _20
REMARK   10  A    between atoms: _20  and  _21
REMARK   11  A    between atoms: _30  and  _32
REMARK   12  A    between atoms: _32  and  _33
REMARK   13  A    between atoms: _32  and  _35
REMARK   14  A    between atoms: _35  and  _36
REMARK   15  A    between atoms: _39  and  _41
REMARK   16  A    between atoms: _41  and  _42
REMARK   17  A    between atoms: _45  and  _47
REMARK   18  A    between atoms: _47  and  _48
REMARK   19  A    between atoms: _47  and  _50
REMARK   20  A    between atoms: _50  and  _51
REMARK   21  A    between atoms: _51  and  _52
REMARK   22  A    between atoms: _55  and  _57
REMARK   23  A    between atoms: _57  and  _58
REMARK   24  A    between atoms: _57  and  _60
REMARK   25  A    between atoms: _60  and  _61
REMARK   26  A    between atoms: _66  and  _68
REMARK   27  A    between atoms: _68  and  _69
REMARK   28  A    between atoms: _68  and  _71
REMARK   29  A    between atoms: _71  and  _72
REMARK   30  A    between atoms: _72  and  _73
REMARK   31  A    between atoms: _73  and  _74
REMARK   32  A    between atoms: _74  and  _75
REMARK   33  A    between atoms: _79  and  _81
REMARK   34  A    between atoms: _81  and  _82
REMARK   35  A    between atoms: _81  and  _84
REMARK   36  A    between atoms: _84  and  _85
REMARK   37  A    between atoms: _85  and  _86
REMARK   38  A    between atoms: _86  and  _87
REMARK   39  A    between atoms: _96  and  _98
REMARK   40  A    between atoms: _98  and  _99
REMARK   41  A    between atoms: _98  and  _101
REMARK   42  A    between atoms: _101  and  _102
REMARK   43  A    between atoms: _107  and  _109
REMARK   44  A    between atoms: _109  and  _110
REMARK   45  A    between atoms: _109  and  _112
REMARK   46  A    between atoms: _112  and  _113
REMARK   47  A    between atoms: _116  and  _118
REMARK   48  A    between atoms: _118  and  _119
REMARK   49  A    between atoms: _118  and  _121
REMARK   50  A    between atoms: _121  and  _122
REMARK   51  A    between atoms: _132  and  _134
REMARK   52  A    between atoms: _134  and  _135
REMARK   53  A    between atoms: _134  and  _137
REMARK   54  A    between atoms: _137  and  _138
REMARK   55  A    between atoms: _143  and  _145
REMARK   56  A    between atoms: _145  and  _146
REMARK   57  A    between atoms: _145  and  _148
REMARK   58  A    between atoms: _148  and  _149
REMARK   59  A    between atoms: _151  and  _153
REMARK   60  A    between atoms: _153  and  _154
REMARK   61  A    between atoms: _153  and  _156
REMARK   62  A    between atoms: _156  and  _157
REMARK   63  A    between atoms: _157  and  _158
REMARK   64  A    between atoms: _163  and  _165
REMARK   65  A    between atoms: _165  and  _166
REMARK   66  A    between atoms: _165  and  _168
REMARK   67  A    between atoms: _168  and  _169
REMARK   68  A    between atoms: _172  and  _174
REMARK   69  A    between atoms: _174  and  _175
REMARK   70  A    between atoms: _174  and  _177
REMARK   71  A    between atoms: _177  and  _178
REMARK   72  A    between atoms: _183  and  _185
REMARK   73  A    between atoms: _185  and  _186
REMARK   74  A    between atoms: _185  and  _188
REMARK   75  A    between atoms: _188  and  _189
REMARK   76  A    between atoms: _189  and  _190
REMARK   77  A    between atoms: _193  and  _195
REMARK   78  A    between atoms: _195  and  _196
REMARK   79  A    between atoms: _195  and  _198
REMARK   80  A    between atoms: _198  and  _199
REMARK   81  A    between atoms: _204  and  _206
REMARK   82  A    between atoms: _206  and  _207
REMARK   83  A    between atoms: _206  and  _209
REMARK   84  A    between atoms: _209  and  _210
REMARK   85  A    between atoms: _213  and  _215
REMARK   86  A    between atoms: _215  and  _216
REMARK   87  A    between atoms: _215  and  _218
REMARK   88  A    between atoms: _218  and  _219
REMARK   89  A    between atoms: _224  and  _225
REMARK   90  A    between atoms: _227  and  _229
REMARK   91  A    between atoms: _229  and  _230
REMARK   92  A    between atoms: _229  and  _232
REMARK   93  A    between atoms: _232  and  _233
REMARK   94  A    between atoms: _233  and  _234
REMARK   95  A    between atoms: _239  and  _241
REMARK   96  A    between atoms: _241  and  _242
REMARK   97  A    between atoms: _241  and  _244
REMARK   98  A    between atoms: _244  and  _245
REMARK   99  A    between atoms: _250  and  _252
REMARK  100  A    between atoms: _252  and  _253
REMARK  101  A    between atoms: _252  and  _255
REMARK  102  A    between atoms: _255  and  _256
REMARK  103  A    between atoms: _259  and  _261
REMARK  104  A    between atoms: _261  and  _262
REMARK  105  A    between atoms: _261  and  _264
REMARK  106  A    between atoms: _264  and  _265
REMARK  107  A    between atoms: _265  and  _266
REMARK  108  A    between atoms: _269  and  _271
REMARK  109  A    between atoms: _271  and  _272
REMARK  110  A    between atoms: _271  and  _274
REMARK  111  A    between atoms: _274  and  _275
REMARK  112  A    between atoms: _278  and  _280
REMARK  113  A    between atoms: _280  and  _281
REMARK  114  A    between atoms: _280  and  _283
REMARK  115  A    between atoms: _283  and  _284
REMARK  116  A    between atoms: _294  and  _296
REMARK  117  A    between atoms: _296  and  _297
REMARK  118  A    between atoms: _299  and  _301
REMARK  119  A    between atoms: _301  and  _302
REMARK  120  A    between atoms: _301  and  _304
REMARK  121  A    between atoms: _304  and  _305
REMARK  122  A    between atoms: _308  and  _310
REMARK  123  A    between atoms: _310  and  _311
REMARK  124  A    between atoms: _310  and  _313
REMARK  125  A    between atoms: _313  and  _314
REMARK  126  A    between atoms: _316  and  _318
REMARK  127  A    between atoms: _318  and  _319
REMARK  128  A    between atoms: _318  and  _321
REMARK  129  A    between atoms: _321  and  _322
REMARK  130  A    between atoms: _332  and  _334
REMARK  131  A    between atoms: _334  and  _335
REMARK  132  A    between atoms: _334  and  _337
REMARK  133  A    between atoms: _337  and  _338
REMARK  134  A    between atoms: _338  and  _339
REMARK  135  A    between atoms: _339  and  _340
REMARK                            x       y       z     vdW  Elec       q    Type
REMARK                         _______ _______ _______ _____ _____    ______ ____
ROOT
ATOM      1  O   HOH     1       2.603  13.781  13.162  0.00  0.00    +0.000 OA
ENDROOT
TORSDOF 0
REMARK  Name = ../refined-set-2016/1od8/1od8_pocket.pdb
REMARK  135 active torsions:
REMARK  status: ('A' for Active; 'I' for Inactive)
REMARK    1  A    between atoms: _1  and  _3
REMARK    2  A    between atoms: _3  and  _4
REMARK    3  A    between atoms: _7  and  _9
REMARK    4  A    between atoms: _9  and  _10
REMARK    5  A    between atoms: _13  and  _15
REMARK    6  A    between atoms: _15  and  _16
REMARK    7  A    between atoms: _15  and  _18
REMARK    8  A    between atoms: _18  and  _19
REMARK    9  A    between atoms: _19  and  _20
REMARK   10  A    between atoms: _20  and  _21
REMARK   11  A    between atoms: _30  and  _32
REMARK   12  A    between atoms: _32  and  _33
REMARK   13  A    between atoms: _32  and  _35
REMARK   14  A    between atoms: _35  and  _36
REMARK   15  A    between atoms: _39  and  _41
REMARK   16  A    between atoms: _41  and  _42
REMARK   17  A    between atoms: _45  and  _47
REMARK   18  A    between atoms: _47  and  _48
REMARK   19  A    between atoms: _47  and  _50
REMARK   20  A    between atoms: _50  and  _51
REMARK   21  A    between atoms: _51  and  _52
REMARK   22  A    between atoms: _55  and  _57
REMARK   23  A    between atoms: _57  and  _58
REMARK   24  A    between atoms: _57  and  _60
REMARK   25  A    between atoms: _60  and  _61
REMARK   26  A    between atoms: _66  and  _68
REMARK   27  A    between atoms: _68  and  _69
REMARK   28  A    between atoms: _68  and  _71
REMARK   29  A    between atoms: _71  and  _72
REMARK   30  A    between atoms: _72  and  _73
REMARK   31  A    between atoms: _73  and  _74
REMARK   32  A    between atoms: _74  and  _75
REMARK   33  A    between atoms: _79  and  _81
REMARK   34  A    between atoms: _81  and  _82
REMARK   35  A    between atoms: _81  and  _84
REMARK   36  A    between atoms: _84  and  _85
REMARK   37  A    between atoms: _85  and  _86
REMARK   38  A    between atoms: _86  and  _87
REMARK   39  A    between atoms: _96  and  _98
REMARK   40  A    between atoms: _98  and  _99
REMARK   41  A    between atoms: _98  and  _101
REMARK   42  A    between atoms: _101  and  _102
REMARK   43  A    between atoms: _107  and  _109
REMARK   44  A    between atoms: _109  and  _110
REMARK   45  A    between atoms: _109  and  _112
REMARK   46  A    between atoms: _112  and  _113
REMARK   47  A    between atoms: _116  and  _118
REMARK   48  A    between atoms: _118  and  _119
REMARK   49  A    between atoms: _118  and  _121
REMARK   50  A    between atoms: _121  and  _122
REMARK   51  A    between atoms: _132  and  _134
REMARK   52  A    between atoms: _134  and  _135
REMARK   53  A    between atoms: _134  and  _137
REMARK   54  A    between atoms: _137  and  _138
REMARK   55  A    between atoms: _143  and  _145
REMARK   56  A    between atoms: _145  and  _146
REMARK   57  A    between atoms: _145  and  _148
REMARK   58  A    between atoms: _148  and  _149
REMARK   59  A    between atoms: _151  and  _153
REMARK   60  A    between atoms: _153  and  _154
REMARK   61  A    between atoms: _153  and  _156
REMARK   62  A    between atoms: _156  and  _157
REMARK   63  A    between atoms: _157  and  _158
REMARK   64  A    between atoms: _163  and  _165
REMARK   65  A    between atoms: _165  and  _166
REMARK   66  A    between atoms: _165  and  _168
REMARK   67  A    between atoms: _168  and  _169
REMARK   68  A    between atoms: _172  and  _174
REMARK   69  A    between atoms: _174  and  _175
REMARK   70  A    between atoms: _174  and  _177
REMARK   71  A    between atoms: _177  and  _178
REMARK   72  A    between atoms: _183  and  _185
REMARK   73  A    between atoms: _185  and  _186
REMARK   74  A    between atoms: _185  and  _188
REMARK   75  A    between atoms: _188  and  _189
REMARK   76  A    between atoms: _189  and  _190
REMARK   77  A    between atoms: _193  and  _195
REMARK   78  A    between atoms: _195  and  _196
REMARK   79  A    between atoms: _195  and  _198
REMARK   80  A    between atoms: _198  and  _199
REMARK   81  A    between atoms: _204  and  _206
REMARK   82  A    between atoms: _206  and  _207
REMARK   83  A    between atoms: _206  and  _209
REMARK   84  A    between atoms: _209  and  _210
REMARK   85  A    between atoms: _213  and  _215
REMARK   86  A    between atoms: _215  and  _216
REMARK   87  A    between atoms: _215  and  _218
REMARK   88  A    between atoms: _218  and  _219
REMARK   89  A    between atoms: _224  and  _225
REMARK   90  A    between atoms: _227  and  _229
REMARK   91  A    between atoms: _229  and  _230
REMARK   92  A    between atoms: _229  and  _232
REMARK   93  A    between atoms: _232  and  _233
REMARK   94  A    between atoms: _233  and  _234
REMARK   95  A    between atoms: _239  and  _241
REMARK   96  A    between atoms: _241  and  _242
REMARK   97  A    between atoms: _241  and  _244
REMARK   98  A    between atoms: _244  and  _245
REMARK   99  A    between atoms: _250  and  _252
REMARK  100  A    between atoms: _252  and  _253
REMARK  101  A    between atoms: _252  and  _255
REMARK  102  A    between atoms: _255  and  _256
REMARK  103  A    between atoms: _259  and  _261
REMARK  104  A    between atoms: _261  and  _262
REMARK  105  A    between atoms: _261  and  _264
REMARK  106  A    between atoms: _264  and  _265
REMARK  107  A    between atoms: _265  and  _266
REMARK  108  A    between atoms: _269  and  _271
REMARK  109  A    between atoms: _271  and  _272
REMARK  110  A    between atoms: _271  and  _274
REMARK  111  A    between atoms: _274  and  _275
REMARK  112  A    between atoms: _278  and  _280
REMARK  113  A    between atoms: _280  and  _281
REMARK  114  A    between atoms: _280  and  _283
REMARK  115  A    between atoms: _283  and  _284
REMARK  116  A    between atoms: _294  and  _296
REMARK  117  A    between atoms: _296  and  _297
REMARK  118  A    between atoms: _299  and  _301
REMARK  119  A    between atoms: _301  and  _302
REMARK  120  A    between atoms: _301  and  _304
REMARK  121  A    between atoms: _304  and  _305
REMARK  122  A    between atoms: _308  and  _310
REMARK  123  A    between atoms: _310  and  _311
REMARK  124  A    between atoms: _310  and  _313
REMARK  125  A    between atoms: _313  and  _314
REMARK  126  A    between atoms: _316  and  _318
REMARK  127  A    between atoms: _318  and  _319
REMARK  128  A    between atoms: _318  and  _321
REMARK  129  A    between atoms: _321  and  _322
REMARK  130  A    between atoms: _332  and  _334
REMARK  131  A    between atoms: _334  and  _335
REMARK  132  A    between atoms: _334  and  _337
REMARK  133  A    between atoms: _337  and  _338
REMARK  134  A    between atoms: _338  and  _339
REMARK  135  A    between atoms: _339  and  _340
REMARK                            x       y       z     vdW  Elec       q    Type
REMARK                         _______ _______ _______ _____ _____    ______ ____
ROOT
ATOM      1  O   HOH     1       1.143  14.995  17.240  0.00  0.00    +0.000 OA
ENDROOT
TORSDOF 0
REMARK  Name = ../refined-set-2016/1od8/1od8_pocket.pdb
REMARK  135 active torsions:
REMARK  status: ('A' for Active; 'I' for Inactive)
REMARK    1  A    between atoms: _1  and  _3
REMARK    2  A    between atoms: _3  and  _4
REMARK    3  A    between atoms: _7  and  _9
REMARK    4  A    between atoms: _9  and  _10
REMARK    5  A    between atoms: _13  and  _15
REMARK    6  A    between atoms: _15  and  _16
REMARK    7  A    between atoms: _15  and  _18
REMARK    8  A    between atoms: _18  and  _19
REMARK    9  A    between atoms: _19  and  _20
REMARK   10  A    between atoms: _20  and  _21
REMARK   11  A    between atoms: _30  and  _32
REMARK   12  A    between atoms: _32  and  _33
REMARK   13  A    between atoms: _32  and  _35
REMARK   14  A    between atoms: _35  and  _36
REMARK   15  A    between atoms: _39  and  _41
REMARK   16  A    between atoms: _41  and  _42
REMARK   17  A    between atoms: _45  and  _47
REMARK   18  A    between atoms: _47  and  _48
REMARK   19  A    between atoms: _47  and  _50
REMARK   20  A    between atoms: _50  and  _51
REMARK   21  A    between atoms: _51  and  _52
REMARK   22  A    between atoms: _55  and  _57
REMARK   23  A    between atoms: _57  and  _58
REMARK   24  A    between atoms: _57  and  _60
REMARK   25  A    between atoms: _60  and  _61
REMARK   26  A    between atoms: _66  and  _68
REMARK   27  A    between atoms: _68  and  _69
REMARK   28  A    between atoms: _68  and  _71
REMARK   29  A    between atoms: _71  and  _72
REMARK   30  A    between atoms: _72  and  _73
REMARK   31  A    between atoms: _73  and  _74
REMARK   32  A    between atoms: _74  and  _75
REMARK   33  A    between atoms: _79  and  _81
REMARK   34  A    between atoms: _81  and  _82
REMARK   35  A    between atoms: _81  and  _84
REMARK   36  A    between atoms: _84  and  _85
REMARK   37  A    between atoms: _85  and  _86
REMARK   38  A    between atoms: _86  and  _87
REMARK   39  A    between atoms: _96  and  _98
REMARK   40  A    between atoms: _98  and  _99
REMARK   41  A    between atoms: _98  and  _101
REMARK   42  A    between atoms: _101  and  _102
REMARK   43  A    between atoms: _107  and  _109
REMARK   44  A    between atoms: _109  and  _110
REMARK   45  A    between atoms: _109  and  _112
REMARK   46  A    between atoms: _112  and  _113
REMARK   47  A    between atoms: _116  and  _118
REMARK   48  A    between atoms: _118  and  _119
REMARK   49  A    between atoms: _118  and  _121
REMARK   50  A    between atoms: _121  and  _122
REMARK   51  A    between atoms: _132  and  _134
REMARK   52  A    between atoms: _134  and  _135
REMARK   53  A    between atoms: _134  and  _137
REMARK   54  A    between atoms: _137  and  _138
REMARK   55  A    between atoms: _143  and  _145
REMARK   56  A    between atoms: _145  and  _146
REMARK   57  A    between atoms: _145  and  _148
REMARK   58  A    between atoms: _148  and  _149
REMARK   59  A    between atoms: _151  and  _153
REMARK   60  A    between atoms: _153  and  _154
REMARK   61  A    between atoms: _153  and  _156
REMARK   62  A    between atoms: _156  and  _157
REMARK   63  A    between atoms: _157  and  _158
REMARK   64  A    between atoms: _163  and  _165
REMARK   65  A    between atoms: _165  and  _166
REMARK   66  A    between atoms: _165  and  _168
REMARK   67  A    between atoms: _168  and  _169
REMARK   68  A    between atoms: _172  and  _174
REMARK   69  A    between atoms: _174  and  _175
REMARK   70  A    between atoms: _174  and  _177
REMARK   71  A    between atoms: _177  and  _178
REMARK   72  A    between atoms: _183  and  _185
REMARK   73  A    between atoms: _185  and  _186
REMARK   74  A    between atoms: _185  and  _188
REMARK   75  A    between atoms: _188  and  _189
REMARK   76  A    between atoms: _189  and  _190
REMARK   77  A    between atoms: _193  and  _195
REMARK   78  A    between atoms: _195  and  _196
REMARK   79  A    between atoms: _195  and  _198
REMARK   80  A    between atoms: _198  and  _199
REMARK   81  A    between atoms: _204  and  _206
REMARK   82  A    between atoms: _206  and  _207
REMARK   83  A    between atoms: _206  and  _209
REMARK   84  A    between atoms: _209  and  _210
REMARK   85  A    between atoms: _213  and  _215
REMARK   86  A    between atoms: _215  and  _216
REMARK   87  A    between atoms: _215  and  _218
REMARK   88  A    between atoms: _218  and  _219
REMARK   89  A    between atoms: _224  and  _225
REMARK   90  A    between atoms: _227  and  _229
REMARK   91  A    between atoms: _229  and  _230
REMARK   92  A    between atoms: _229  and  _232
REMARK   93  A    between atoms: _232  and  _233
REMARK   94  A    between atoms: _233  and  _234
REMARK   95  A    between atoms: _239  and  _241
REMARK   96  A    between atoms: _241  and  _242
REMARK   97  A    between atoms: _241  and  _244
REMARK   98  A    between atoms: _244  and  _245
REMARK   99  A    between atoms: _250  and  _252
REMARK  100  A    between atoms: _252  and  _253
REMARK  101  A    between atoms: _252  and  _255
REMARK  102  A    between atoms: _255  and  _256
REMARK  103  A    between atoms: _259  and  _261
REMARK  104  A    between atoms: _261  and  _262
REMARK  105  A    between atoms: _261  and  _264
REMARK  106  A    between atoms: _264  and  _265
REMARK  107  A    between atoms: _265  and  _266
REMARK  108  A    between atoms: _269  and  _271
REMARK  109  A    between atoms: _271  and  _272
REMARK  110  A    between atoms: _271  and  _274
REMARK  111  A    between atoms: _274  and  _275
REMARK  112  A    between atoms: _278  and  _280
REMARK  113  A    between atoms: _280  and  _281
REMARK  114  A    between atoms: _280  and  _283
REMARK  115  A    between atoms: _283  and  _284
REMARK  116  A    between atoms: _294  and  _296
REMARK  117  A    between atoms: _296  and  _297
REMARK  118  A    between atoms: _299  and  _301
REMARK  119  A    between atoms: _301  and  _302
REMARK  120  A    between atoms: _301  and  _304
REMARK  121  A    between atoms: _304  and  _305
REMARK  122  A    between atoms: _308  and  _310
REMARK  123  A    between atoms: _310  and  _311
REMARK  124  A    between atoms: _310  and  _313
REMARK  125  A    between atoms: _313  and  _314
REMARK  126  A    between atoms: _316  and  _318
REMARK  127  A    between atoms: _318  and  _319
REMARK  128  A    between atoms: _318  and  _321
REMARK  129  A    between atoms: _321  and  _322
REMARK  130  A    between atoms: _332  and  _334
REMARK  131  A    between atoms: _334  and  _335
REMARK  132  A    between atoms: _334  and  _337
REMARK  133  A    between atoms: _337  and  _338
REMARK  134  A    between atoms: _338  and  _339
REMARK  135  A    between atoms: _339  and  _340
REMARK                            x       y       z     vdW  Elec       q    Type
REMARK                         _______ _______ _______ _____ _____    ______ ____
ROOT
ATOM      1  O   HOH     1       1.902  11.121  18.321  0.00  0.00    +0.000 OA
ENDROOT
TORSDOF 0
