REMARK  Name = ../refined-set-2016/4cps/4cps_pocket.pdb
REMARK  231 active torsions:
REMARK  status: ('A' for Active; 'I' for Inactive)
REMARK    1  A    between atoms: _1  and  _3
REMARK    2  A    between atoms: _3  and  _4
REMARK    3  A    between atoms: _3  and  _6
REMARK    4  A    between atoms: _6  and  _7
REMARK    5  A    between atoms: _7  and  _8
REMARK    6  A    between atoms: _8  and  _9
REMARK    7  A    between atoms: _18  and  _20
REMARK    8  A    between atoms: _20  and  _21
REMARK    9  A    between atoms: _20  and  _23
REMARK   10  A    between atoms: _23  and  _24
REMARK   11  A    between atoms: _27  and  _29
REMARK   12  A    between atoms: _29  and  _30
REMARK   13  A    between atoms: _29  and  _32
REMARK   14  A    between atoms: _32  and  _33
REMARK   15  A    between atoms: _36  and  _38
REMARK   16  A    between atoms: _38  and  _39
REMARK   17  A    between atoms: _38  and  _41
REMARK   18  A    between atoms: _41  and  _42
REMARK   19  A    between atoms: _45  and  _47
REMARK   20  A    between atoms: _47  and  _48
REMARK   21  A    between atoms: _47  and  _50
REMARK   22  A    between atoms: _50  and  _51
REMARK   23  A    between atoms: _54  and  _56
REMARK   24  A    between atoms: _56  and  _57
REMARK   25  A    between atoms: _59  and  _61
REMARK   26  A    between atoms: _61  and  _62
REMARK   27  A    between atoms: _65  and  _67
REMARK   28  A    between atoms: _67  and  _68
REMARK   29  A    between atoms: _67  and  _70
REMARK   30  A    between atoms: _70  and  _71
REMARK   31  A    between atoms: _74  and  _76
REMARK   32  A    between atoms: _76  and  _77
REMARK   33  A    between atoms: _76  and  _79
REMARK   34  A    between atoms: _79  and  _80
REMARK   35  A    between atoms: _83  and  _85
REMARK   36  A    between atoms: _85  and  _86
REMARK   37  A    between atoms: _85  and  _88
REMARK   38  A    between atoms: _88  and  _89
REMARK   39  A    between atoms: _92  and  _94
REMARK   40  A    between atoms: _94  and  _95
REMARK   41  A    between atoms: _94  and  _97
REMARK   42  A    between atoms: _100  and  _102
REMARK   43  A    between atoms: _102  and  _103
REMARK   44  A    between atoms: _102  and  _105
REMARK   45  A    between atoms: _105  and  _106
REMARK   46  A    between atoms: _106  and  _107
REMARK   47  A    between atoms: _107  and  _108
REMARK   48  A    between atoms: _108  and  _109
REMARK   49  A    between atoms: _113  and  _115
REMARK   50  A    between atoms: _115  and  _116
REMARK   51  A    between atoms: _115  and  _118
REMARK   52  A    between atoms: _118  and  _119
REMARK   53  A    between atoms: _119  and  _120
REMARK   54  A    between atoms: _122  and  _124
REMARK   55  A    between atoms: _124  and  _125
REMARK   56  A    between atoms: _124  and  _127
REMARK   57  A    between atoms: _127  and  _128
REMARK   58  A    between atoms: _131  and  _133
REMARK   59  A    between atoms: _133  and  _134
REMARK   60  A    between atoms: _136  and  _138
REMARK   61  A    between atoms: _138  and  _139
REMARK   62  A    between atoms: _141  and  _143
REMARK   63  A    between atoms: _143  and  _144
REMARK   64  A    between atoms: _143  and  _146
REMARK   65  A    between atoms: _146  and  _147
REMARK   66  A    between atoms: _150  and  _152
REMARK   67  A    between atoms: _152  and  _153
REMARK   68  A    between atoms: _155  and  _157
REMARK   69  A    between atoms: _157  and  _158
REMARK   70  A    between atoms: _160  and  _162
REMARK   71  A    between atoms: _162  and  _163
REMARK   72  A    between atoms: _162  and  _165
REMARK   73  A    between atoms: _165  and  _166
REMARK   74  A    between atoms: _172  and  _174
REMARK   75  A    between atoms: _174  and  _175
REMARK   76  A    between atoms: _174  and  _177
REMARK   77  A    between atoms: _177  and  _178
REMARK   78  A    between atoms: _181  and  _183
REMARK   79  A    between atoms: _183  and  _184
REMARK   80  A    between atoms: _183  and  _186
REMARK   81  A    between atoms: _186  and  _187
REMARK   82  A    between atoms: _190  and  _192
REMARK   83  A    between atoms: _192  and  _193
REMARK   84  A    between atoms: _192  and  _195
REMARK   85  A    between atoms: _195  and  _196
REMARK   86  A    between atoms: _200  and  _201
REMARK   87  A    between atoms: _206  and  _208
REMARK   88  A    between atoms: _208  and  _209
REMARK   89  A    between atoms: _208  and  _211
REMARK   90  A    between atoms: _211  and  _212
REMARK   91  A    between atoms: _215  and  _217
REMARK   92  A    between atoms: _217  and  _218
REMARK   93  A    between atoms: _217  and  _220
REMARK   94  A    between atoms: _220  and  _221
REMARK   95  A    between atoms: _226  and  _228
REMARK   96  A    between atoms: _228  and  _229
REMARK   97  A    between atoms: _228  and  _231
REMARK   98  A    between atoms: _234  and  _236
REMARK   99  A    between atoms: _236  and  _237
REMARK  100  A    between atoms: _236  and  _239
REMARK  101  A    between atoms: _239  and  _240
REMARK  102  A    between atoms: _243  and  _245
REMARK  103  A    between atoms: _245  and  _246
REMARK  104  A    between atoms: _248  and  _250
REMARK  105  A    between atoms: _250  and  _251
REMARK  106  A    between atoms: _250  and  _253
REMARK  107  A    between atoms: _253  and  _254
REMARK  108  A    between atoms: _254  and  _255
REMARK  109  A    between atoms: _255  and  _256
REMARK  110  A    between atoms: _265  and  _267
REMARK  111  A    between atoms: _267  and  _268
REMARK  112  A    between atoms: _267  and  _270
REMARK  113  A    between atoms: _270  and  _271
REMARK  114  A    between atoms: _276  and  _278
REMARK  115  A    between atoms: _278  and  _279
REMARK  116  A    between atoms: _278  and  _281
REMARK  117  A    between atoms: _281  and  _282
REMARK  118  A    between atoms: _282  and  _283
REMARK  119  A    between atoms: _283  and  _284
REMARK  120  A    between atoms: _293  and  _295
REMARK  121  A    between atoms: _295  and  _296
REMARK  122  A    between atoms: _295  and  _298
REMARK  123  A    between atoms: _298  and  _299
REMARK  124  A    between atoms: _302  and  _304
REMARK  125  A    between atoms: _304  and  _305
REMARK  126  A    between atoms: _304  and  _307
REMARK  127  A    between atoms: _307  and  _308
REMARK  128  A    between atoms: _311  and  _313
REMARK  129  A    between atoms: _313  and  _314
REMARK  130  A    between atoms: _313  and  _316
REMARK  131  A    between atoms: _316  and  _317
REMARK  132  A    between atoms: _320  and  _322
REMARK  133  A    between atoms: _322  and  _323
REMARK  134  A    between atoms: _322  and  _325
REMARK  135  A    between atoms: _325  and  _326
REMARK  136  A    between atoms: _329  and  _331
REMARK  137  A    between atoms: _331  and  _332
REMARK  138  A    between atoms: _331  and  _334
REMARK  139  A    between atoms: _334  and  _335
REMARK  140  A    between atoms: _338  and  _340
REMARK  141  A    between atoms: _340  and  _341
REMARK  142  A    between atoms: _343  and  _345
REMARK  143  A    between atoms: _345  and  _346
REMARK  144  A    between atoms: _349  and  _351
REMARK  145  A    between atoms: _351  and  _352
REMARK  146  A    between atoms: _351  and  _354
REMARK  147  A    between atoms: _354  and  _355
REMARK  148  A    between atoms: _358  and  _360
REMARK  149  A    between atoms: _360  and  _361
REMARK  150  A    between atoms: _360  and  _363
REMARK  151  A    between atoms: _363  and  _364
REMARK  152  A    between atoms: _367  and  _369
REMARK  153  A    between atoms: _369  and  _370
REMARK  154  A    between atoms: _369  and  _372
REMARK  155  A    between atoms: _372  and  _373
REMARK  156  A    between atoms: _376  and  _378
REMARK  157  A    between atoms: _378  and  _379
REMARK  158  A    between atoms: _378  and  _381
REMARK  159  A    between atoms: _384  and  _386
REMARK  160  A    between atoms: _386  and  _387
REMARK  161  A    between atoms: _386  and  _389
REMARK  162  A    between atoms: _389  and  _390
REMARK  163  A    between atoms: _390  and  _391
REMARK  164  A    between atoms: _391  and  _392
REMARK  165  A    between atoms: _392  and  _393
REMARK  166  A    between atoms: _397  and  _399
REMARK  167  A    between atoms: _399  and  _400
REMARK  168  A    between atoms: _399  and  _402
REMARK  169  A    between atoms: _402  and  _403
REMARK  170  A    between atoms: _403  and  _404
REMARK  171  A    between atoms: _406  and  _408
REMARK  172  A    between atoms: _408  and  _409
REMARK  173  A    between atoms: _408  and  _411
REMARK  174  A    between atoms: _411  and  _412
REMARK  175  A    between atoms: _415  and  _417
REMARK  176  A    between atoms: _417  and  _418
REMARK  177  A    between atoms: _420  and  _422
REMARK  178  A    between atoms: _422  and  _423
REMARK  179  A    between atoms: _425  and  _427
REMARK  180  A    between atoms: _427  and  _428
REMARK  181  A    between atoms: _427  and  _430
REMARK  182  A    between atoms: _430  and  _431
REMARK  183  A    between atoms: _434  and  _436
REMARK  184  A    between atoms: _436  and  _437
REMARK  185  A    between atoms: _439  and  _441
REMARK  186  A    between atoms: _441  and  _442
REMARK  187  A    between atoms: _444  and  _446
REMARK  188  A    between atoms: _446  and  _447
REMARK  189  A    between atoms: _446  and  _449
REMARK  190  A    between atoms: _449  and  _450
REMARK  191  A    between atoms: _456  and  _458
REMARK  192  A    between atoms: _458  and  _459
REMARK  193  A    between atoms: _458  and  _461
REMARK  194  A    between atoms: _461  and  _462
REMARK  195  A    between atoms: _465  and  _467
REMARK  196  A    between atoms: _467  and  _468
REMARK  197  A    between atoms: _467  and  _470
REMARK  198  A    between atoms: _473  and  _475
REMARK  199  A    between atoms: _475  and  _476
REMARK  200  A    between atoms: _475  and  _478
REMARK  201  A    between atoms: _478  and  _479
REMARK  202  A    between atoms: _482  and  _484
REMARK  203  A    between atoms: _484  and  _485
REMARK  204  A    between atoms: _484  and  _487
REMARK  205  A    between atoms: _485  and  _486
REMARK  206  A    between atoms: _485  and  _491
REMARK  207  A    between atoms: _487  and  _488
REMARK  208  A    between atoms: _492  and  _493
REMARK  209  A    between atoms: _498  and  _500
REMARK  210  A    between atoms: _500  and  _501
REMARK  211  A    between atoms: _500  and  _503
REMARK  212  A    between atoms: _503  and  _504
REMARK  213  A    between atoms: _507  and  _509
REMARK  214  A    between atoms: _509  and  _510
REMARK  215  A    between atoms: _509  and  _512
REMARK  216  A    between atoms: _512  and  _513
REMARK  217  A    between atoms: _518  and  _520
REMARK  218  A    between atoms: _520  and  _521
REMARK  219  A    between atoms: _520  and  _523
REMARK  220  A    between atoms: _526  and  _528
REMARK  221  A    between atoms: _528  and  _529
REMARK  222  A    between atoms: _528  and  _531
REMARK  223  A    between atoms: _531  and  _532
REMARK  224  A    between atoms: _535  and  _537
REMARK  225  A    between atoms: _537  and  _538
REMARK  226  A    between atoms: _540  and  _542
REMARK  227  A    between atoms: _542  and  _543
REMARK  228  A    between atoms: _542  and  _545
REMARK  229  A    between atoms: _545  and  _546
REMARK  230  A    between atoms: _546  and  _547
REMARK  231  A    between atoms: _547  and  _548
REMARK                            x       y       z     vdW  Elec       q    Type
REMARK                         _______ _______ _______ _____ _____    ______ ____
ROOT
ATOM      1  NE  ARG A   1      23.505  20.396   7.724  0.00  0.00    -0.265 N 
ATOM      2  CZ  ARG A   1      23.551  19.287   8.453  0.00  0.00    +0.342 C 
ATOM      3  NH2 ARG A   1      23.992  19.330   9.704  0.00  0.00    -0.292 N 
ATOM      4 HH21 ARG A   1      24.027  18.460  10.273  0.00  0.00    +0.255 HD
ATOM      5 HH22 ARG A   1      24.302  20.233  10.115  0.00  0.00    +0.255 HD
ATOM      6  NH1 ARG A   1      23.100  18.149   7.949  0.00  0.00    -0.292 N 
ATOM      7 HH11 ARG A   1      23.135  17.279   8.517  0.00  0.00    +0.255 HD
ATOM      8 HH12 ARG A   1      22.711  18.125   6.985  0.00  0.00    +0.255 HD
ATOM      9  HE  ARG A   1      23.094  20.334   6.771  0.00  0.00    +0.259 HD
ENDROOT
BRANCH   1  10
ATOM     10  CD  ARG A   1      23.991  21.692   8.170  0.00  0.00    +0.174 C 
BRANCH  10  11
ATOM     11  CG  ARG A   1      24.436  22.529   6.984  0.00  0.00    +0.045 C 
BRANCH  11  12
ATOM     12  CB  ARG A   1      24.874  23.908   7.412  0.00  0.00    +0.029 C 
BRANCH  12  13
ATOM     13  CA  ARG A   1      25.438  24.765   6.284  0.00  0.00    +0.133 C 
BRANCH  13  14
ATOM     14  N   ARG A   1      26.676  24.185   5.759  0.00  0.00    -0.239 NA
ATOM     15  H   ARG A   1      27.040  23.300   6.167  0.00  0.00    +0.142 HD
ENDBRANCH  13  14
BRANCH  13  16
ATOM     16  C   ARG A   1      25.704  26.163   6.806  0.00  0.00    +0.224 C 
ATOM     17  O   ARG A   1      26.705  26.390   7.482  0.00  0.00    -0.287 OA
ENDBRANCH  13  16
ENDBRANCH  12  13
ENDBRANCH  11  12
ENDBRANCH  10  11
ENDBRANCH   1  10
TORSDOF 6
REMARK  Name = ../refined-set-2016/4cps/4cps_pocket.pdb
REMARK  231 active torsions:
REMARK  status: ('A' for Active; 'I' for Inactive)
REMARK    1  A    between atoms: _1  and  _3
REMARK    2  A    between atoms: _3  and  _4
REMARK    3  A    between atoms: _3  and  _6
REMARK    4  A    between atoms: _6  and  _7
REMARK    5  A    between atoms: _7  and  _8
REMARK    6  A    between atoms: _8  and  _9
REMARK    7  A    between atoms: _18  and  _20
REMARK    8  A    between atoms: _20  and  _21
REMARK    9  A    between atoms: _20  and  _23
REMARK   10  A    between atoms: _23  and  _24
REMARK   11  A    between atoms: _27  and  _29
REMARK   12  A    between atoms: _29  and  _30
REMARK   13  A    between atoms: _29  and  _32
REMARK   14  A    between atoms: _32  and  _33
REMARK   15  A    between atoms: _36  and  _38
REMARK   16  A    between atoms: _38  and  _39
REMARK   17  A    between atoms: _38  and  _41
REMARK   18  A    between atoms: _41  and  _42
REMARK   19  A    between atoms: _45  and  _47
REMARK   20  A    between atoms: _47  and  _48
REMARK   21  A    between atoms: _47  and  _50
REMARK   22  A    between atoms: _50  and  _51
REMARK   23  A    between atoms: _54  and  _56
REMARK   24  A    between atoms: _56  and  _57
REMARK   25  A    between atoms: _59  and  _61
REMARK   26  A    between atoms: _61  and  _62
REMARK   27  A    between atoms: _65  and  _67
REMARK   28  A    between atoms: _67  and  _68
REMARK   29  A    between atoms: _67  and  _70
REMARK   30  A    between atoms: _70  and  _71
REMARK   31  A    between atoms: _74  and  _76
REMARK   32  A    between atoms: _76  and  _77
REMARK   33  A    between atoms: _76  and  _79
REMARK   34  A    between atoms: _79  and  _80
REMARK   35  A    between atoms: _83  and  _85
REMARK   36  A    between atoms: _85  and  _86
REMARK   37  A    between atoms: _85  and  _88
REMARK   38  A    between atoms: _88  and  _89
REMARK   39  A    between atoms: _92  and  _94
REMARK   40  A    between atoms: _94  and  _95
REMARK   41  A    between atoms: _94  and  _97
REMARK   42  A    between atoms: _100  and  _102
REMARK   43  A    between atoms: _102  and  _103
REMARK   44  A    between atoms: _102  and  _105
REMARK   45  A    between atoms: _105  and  _106
REMARK   46  A    between atoms: _106  and  _107
REMARK   47  A    between atoms: _107  and  _108
REMARK   48  A    between atoms: _108  and  _109
REMARK   49  A    between atoms: _113  and  _115
REMARK   50  A    between atoms: _115  and  _116
REMARK   51  A    between atoms: _115  and  _118
REMARK   52  A    between atoms: _118  and  _119
REMARK   53  A    between atoms: _119  and  _120
REMARK   54  A    between atoms: _122  and  _124
REMARK   55  A    between atoms: _124  and  _125
REMARK   56  A    between atoms: _124  and  _127
REMARK   57  A    between atoms: _127  and  _128
REMARK   58  A    between atoms: _131  and  _133
REMARK   59  A    between atoms: _133  and  _134
REMARK   60  A    between atoms: _136  and  _138
REMARK   61  A    between atoms: _138  and  _139
REMARK   62  A    between atoms: _141  and  _143
REMARK   63  A    between atoms: _143  and  _144
REMARK   64  A    between atoms: _143  and  _146
REMARK   65  A    between atoms: _146  and  _147
REMARK   66  A    between atoms: _150  and  _152
REMARK   67  A    between atoms: _152  and  _153
REMARK   68  A    between atoms: _155  and  _157
REMARK   69  A    between atoms: _157  and  _158
REMARK   70  A    between atoms: _160  and  _162
REMARK   71  A    between atoms: _162  and  _163
REMARK   72  A    between atoms: _162  and  _165
REMARK   73  A    between atoms: _165  and  _166
REMARK   74  A    between atoms: _172  and  _174
REMARK   75  A    between atoms: _174  and  _175
REMARK   76  A    between atoms: _174  and  _177
REMARK   77  A    between atoms: _177  and  _178
REMARK   78  A    between atoms: _181  and  _183
REMARK   79  A    between atoms: _183  and  _184
REMARK   80  A    between atoms: _183  and  _186
REMARK   81  A    between atoms: _186  and  _187
REMARK   82  A    between atoms: _190  and  _192
REMARK   83  A    between atoms: _192  and  _193
REMARK   84  A    between atoms: _192  and  _195
REMARK   85  A    between atoms: _195  and  _196
REMARK   86  A    between atoms: _200  and  _201
REMARK   87  A    between atoms: _206  and  _208
REMARK   88  A    between atoms: _208  and  _209
REMARK   89  A    between atoms: _208  and  _211
REMARK   90  A    between atoms: _211  and  _212
REMARK   91  A    between atoms: _215  and  _217
REMARK   92  A    between atoms: _217  and  _218
REMARK   93  A    between atoms: _217  and  _220
REMARK   94  A    between atoms: _220  and  _221
REMARK   95  A    between atoms: _226  and  _228
REMARK   96  A    between atoms: _228  and  _229
REMARK   97  A    between atoms: _228  and  _231
REMARK   98  A    between atoms: _234  and  _236
REMARK   99  A    between atoms: _236  and  _237
REMARK  100  A    between atoms: _236  and  _239
REMARK  101  A    between atoms: _239  and  _240
REMARK  102  A    between atoms: _243  and  _245
REMARK  103  A    between atoms: _245  and  _246
REMARK  104  A    between atoms: _248  and  _250
REMARK  105  A    between atoms: _250  and  _251
REMARK  106  A    between atoms: _250  and  _253
REMARK  107  A    between atoms: _253  and  _254
REMARK  108  A    between atoms: _254  and  _255
REMARK  109  A    between atoms: _255  and  _256
REMARK  110  A    between atoms: _265  and  _267
REMARK  111  A    between atoms: _267  and  _268
REMARK  112  A    between atoms: _267  and  _270
REMARK  113  A    between atoms: _270  and  _271
REMARK  114  A    between atoms: _276  and  _278
REMARK  115  A    between atoms: _278  and  _279
REMARK  116  A    between atoms: _278  and  _281
REMARK  117  A    between atoms: _281  and  _282
REMARK  118  A    between atoms: _282  and  _283
REMARK  119  A    between atoms: _283  and  _284
REMARK  120  A    between atoms: _293  and  _295
REMARK  121  A    between atoms: _295  and  _296
REMARK  122  A    between atoms: _295  and  _298
REMARK  123  A    between atoms: _298  and  _299
REMARK  124  A    between atoms: _302  and  _304
REMARK  125  A    between atoms: _304  and  _305
REMARK  126  A    between atoms: _304  and  _307
REMARK  127  A    between atoms: _307  and  _308
REMARK  128  A    between atoms: _311  and  _313
REMARK  129  A    between atoms: _313  and  _314
REMARK  130  A    between atoms: _313  and  _316
REMARK  131  A    between atoms: _316  and  _317
REMARK  132  A    between atoms: _320  and  _322
REMARK  133  A    between atoms: _322  and  _323
REMARK  134  A    between atoms: _322  and  _325
REMARK  135  A    between atoms: _325  and  _326
REMARK  136  A    between atoms: _329  and  _331
REMARK  137  A    between atoms: _331  and  _332
REMARK  138  A    between atoms: _331  and  _334
REMARK  139  A    between atoms: _334  and  _335
REMARK  140  A    between atoms: _338  and  _340
REMARK  141  A    between atoms: _340  and  _341
REMARK  142  A    between atoms: _343  and  _345
REMARK  143  A    between atoms: _345  and  _346
REMARK  144  A    between atoms: _349  and  _351
REMARK  145  A    between atoms: _351  and  _352
REMARK  146  A    between atoms: _351  and  _354
REMARK  147  A    between atoms: _354  and  _355
REMARK  148  A    between atoms: _358  and  _360
REMARK  149  A    between atoms: _360  and  _361
REMARK  150  A    between atoms: _360  and  _363
REMARK  151  A    between atoms: _363  and  _364
REMARK  152  A    between atoms: _367  and  _369
REMARK  153  A    between atoms: _369  and  _370
REMARK  154  A    between atoms: _369  and  _372
REMARK  155  A    between atoms: _372  and  _373
REMARK  156  A    between atoms: _376  and  _378
REMARK  157  A    between atoms: _378  and  _379
REMARK  158  A    between atoms: _378  and  _381
REMARK  159  A    between atoms: _384  and  _386
REMARK  160  A    between atoms: _386  and  _387
REMARK  161  A    between atoms: _386  and  _389
REMARK  162  A    between atoms: _389  and  _390
REMARK  163  A    between atoms: _390  and  _391
REMARK  164  A    between atoms: _391  and  _392
REMARK  165  A    between atoms: _392  and  _393
REMARK  166  A    between atoms: _397  and  _399
REMARK  167  A    between atoms: _399  and  _400
REMARK  168  A    between atoms: _399  and  _402
REMARK  169  A    between atoms: _402  and  _403
REMARK  170  A    between atoms: _403  and  _404
REMARK  171  A    between atoms: _406  and  _408
REMARK  172  A    between atoms: _408  and  _409
REMARK  173  A    between atoms: _408  and  _411
REMARK  174  A    between atoms: _411  and  _412
REMARK  175  A    between atoms: _415  and  _417
REMARK  176  A    between atoms: _417  and  _418
REMARK  177  A    between atoms: _420  and  _422
REMARK  178  A    between atoms: _422  and  _423
REMARK  179  A    between atoms: _425  and  _427
REMARK  180  A    between atoms: _427  and  _428
REMARK  181  A    between atoms: _427  and  _430
REMARK  182  A    between atoms: _430  and  _431
REMARK  183  A    between atoms: _434  and  _436
REMARK  184  A    between atoms: _436  and  _437
REMARK  185  A    between atoms: _439  and  _441
REMARK  186  A    between atoms: _441  and  _442
REMARK  187  A    between atoms: _444  and  _446
REMARK  188  A    between atoms: _446  and  _447
REMARK  189  A    between atoms: _446  and  _449
REMARK  190  A    between atoms: _449  and  _450
REMARK  191  A    between atoms: _456  and  _458
REMARK  192  A    between atoms: _458  and  _459
REMARK  193  A    between atoms: _458  and  _461
REMARK  194  A    between atoms: _461  and  _462
REMARK  195  A    between atoms: _465  and  _467
REMARK  196  A    between atoms: _467  and  _468
REMARK  197  A    between atoms: _467  and  _470
REMARK  198  A    between atoms: _473  and  _475
REMARK  199  A    between atoms: _475  and  _476
REMARK  200  A    between atoms: _475  and  _478
REMARK  201  A    between atoms: _478  and  _479
REMARK  202  A    between atoms: _482  and  _484
REMARK  203  A    between atoms: _484  and  _485
REMARK  204  A    between atoms: _484  and  _487
REMARK  205  A    between atoms: _485  and  _486
REMARK  206  A    between atoms: _485  and  _491
REMARK  207  A    between atoms: _487  and  _488
REMARK  208  A    between atoms: _492  and  _493
REMARK  209  A    between atoms: _498  and  _500
REMARK  210  A    between atoms: _500  and  _501
REMARK  211  A    between atoms: _500  and  _503
REMARK  212  A    between atoms: _503  and  _504
REMARK  213  A    between atoms: _507  and  _509
REMARK  214  A    between atoms: _509  and  _510
REMARK  215  A    between atoms: _509  and  _512
REMARK  216  A    between atoms: _512  and  _513
REMARK  217  A    between atoms: _518  and  _520
REMARK  218  A    between atoms: _520  and  _521
REMARK  219  A    between atoms: _520  and  _523
REMARK  220  A    between atoms: _526  and  _528
REMARK  221  A    between atoms: _528  and  _529
REMARK  222  A    between atoms: _528  and  _531
REMARK  223  A    between atoms: _531  and  _532
REMARK  224  A    between atoms: _535  and  _537
REMARK  225  A    between atoms: _537  and  _538
REMARK  226  A    between atoms: _540  and  _542
REMARK  227  A    between atoms: _542  and  _543
REMARK  228  A    between atoms: _542  and  _545
REMARK  229  A    between atoms: _545  and  _546
REMARK  230  A    between atoms: _546  and  _547
REMARK  231  A    between atoms: _547  and  _548
REMARK                            x       y       z     vdW  Elec       q    Type
REMARK                         _______ _______ _______ _____ _____    ______ ____
ROOT
ATOM      1  C   GLY A   5      12.258  28.252   3.265  0.00  0.00    +0.243 C 
ATOM      2  N   ALA A   6      12.560  28.943   4.360  0.00  0.00    -0.297 N 
ATOM      3  H   ALA A   6      13.463  29.456   4.413  0.00  0.00    +0.150 HD
ATOM      4  O   GLY A   5      11.186  27.650   3.146  0.00  0.00    -0.273 OA
ENDROOT
BRANCH   2   5
ATOM      5  CA  ALA A   6      11.634  28.988   5.490  0.00  0.00    +0.149 C 
ATOM      6  CB  ALA A   6      12.385  28.777   6.792  0.00  0.00    +0.031 C 
BRANCH   5   7
ATOM      7  C   ALA A   6      10.895  30.318   5.524  0.00  0.00    +0.241 C 
ATOM      8  N   ASP A   7       9.562  30.268   5.572  0.00  0.00    -0.297 N 
ATOM      9  H   ASP A   7       9.079  29.350   5.500  0.00  0.00    +0.150 HD
ATOM     10  O   ALA A   6      11.527  31.373   5.550  0.00  0.00    -0.273 OA
BRANCH   8  11
ATOM     11  CA  ASP A   7       8.769  31.495   5.726  0.00  0.00    +0.160 C 
BRANCH  11  12
ATOM     12  C   ASP A   7       9.064  32.121   7.081  0.00  0.00    +0.241 C 
ATOM     13  N   ASP A   8       9.170  31.257   8.094  0.00  0.00    -0.297 N 
ATOM     14  H   ASP A   8       9.286  30.249   7.868  0.00  0.00    +0.150 HD
ATOM     15  O   ASP A   7       9.134  33.342   7.208  0.00  0.00    -0.273 OA
BRANCH  13  16
ATOM     16  CA  ASP A   8       9.132  31.647   9.500  0.00  0.00    +0.160 C 
BRANCH  16  17
ATOM     17  C   ASP A   8      10.448  31.266  10.180  0.00  0.00    +0.241 C 
ATOM     18  N   THR A   9      10.747  31.951  11.268  0.00  0.00    -0.295 N 
ATOM     19  H   THR A   9      10.160  32.775  11.509  0.00  0.00    +0.150 HD
ATOM     20  O   ASP A   8      11.154  30.365   9.739  0.00  0.00    -0.273 OA
BRANCH  18  21
ATOM     21  CA  THR A   9      11.858  31.612  12.149  0.00  0.00    +0.176 C 
BRANCH  21  22
ATOM     22  C   THR A   9      11.369  30.696  13.264  0.00  0.00    +0.243 C 
ATOM     23  O   THR A   9      10.365  30.992  13.906  0.00  0.00    -0.273 OA
ATOM     24  N   VAL A  10      12.024  29.543  13.413  0.00  0.00    -0.298 N 
ATOM     25  H   VAL A  10      12.865  29.362  12.829  0.00  0.00    +0.150 HD
BRANCH  24  26
ATOM     26  CA  VAL A  10      11.594  28.527  14.373  0.00  0.00    +0.137 C 
BRANCH  26  27
ATOM     27  CB  VAL A  10      10.990  27.295  13.680  0.00  0.00    +0.026 C 
ATOM     28  CG2 VAL A  10      10.193  26.466  14.689  0.00  0.00    +0.002 C 
ATOM     29  CG1 VAL A  10      10.147  27.710  12.485  0.00  0.00    +0.002 C 
ENDBRANCH  26  27
BRANCH  26  30
ATOM     30  C   VAL A  10      12.767  28.071  15.216  0.00  0.00    +0.227 C 
ATOM     31  O   VAL A  10      13.787  27.634  14.686  0.00  0.00    -0.286 OA
ENDBRANCH  26  30
ENDBRANCH  24  26
ENDBRANCH  21  22
BRANCH  21  32
ATOM     32  CB  THR A   9      12.426  32.904  12.755  0.00  0.00    +0.137 C 
ATOM     33  CG2 THR A   9      13.472  32.615  13.787  0.00  0.00    +0.034 C 
BRANCH  32  34
ATOM     34  OG1 THR A   9      12.991  33.701  11.702  0.00  0.00    -0.382 OA
ATOM     35  HG1 THR A   9      12.287  33.921  11.042  0.00  0.00    +0.210 HD
ENDBRANCH  32  34
ENDBRANCH  21  32
ENDBRANCH  18  21
ENDBRANCH  16  17
BRANCH  16  36
ATOM     36  CB  ASP A   8       7.985  30.922  10.229  0.00  0.00    +0.143 C 
BRANCH  36  37
ATOM     37  CG  ASP A   8       6.638  31.102   9.543  0.00  0.00    +0.367 C 
ATOM     38  OD2 ASP A   8       5.881  30.104   9.437  0.00  0.00    -0.246 OA
ATOM     39  OD1 ASP A   8       6.271  32.261   9.261  0.00  0.00    -0.246 OA
ENDBRANCH  36  37
ENDBRANCH  16  36
ENDBRANCH  13  16
ENDBRANCH  11  12
BRANCH  11  40
ATOM     40  CB  ASP A   7       7.268  31.194   5.643  0.00  0.00    +0.143 C 
BRANCH  40  41
ATOM     41  CG  ASP A   7       6.818  30.723   4.266  0.00  0.00    +0.367 C 
ATOM     42  OD2 ASP A   7       5.652  30.268   4.176  0.00  0.00    -0.246 OA
ATOM     43  OD1 ASP A   7       7.516  30.970   3.256  0.00  0.00    -0.246 OA
ENDBRANCH  40  41
ENDBRANCH  11  40
ENDBRANCH   8  11
ENDBRANCH   5   7
ENDBRANCH   2   5
BRANCH   1  44
ATOM     44  CA  GLY A   5      13.321  28.169   2.186  0.00  0.00    +0.176 C 
BRANCH  44  46
ATOM     45  C   THR A   4      14.548  30.270   2.175  0.00  0.00    +0.243 C 
ATOM     46  N   GLY A   5      14.505  28.978   2.463  0.00  0.00    -0.295 N 
ATOM     47  H   GLY A   5      15.336  28.528   2.898  0.00  0.00    +0.150 HD
ATOM     48  O   THR A   4      13.594  30.878   1.682  0.00  0.00    -0.273 OA
BRANCH  45  49
ATOM     49  CA  THR A   4      15.825  31.023   2.572  0.00  0.00    +0.176 C 
BRANCH  49  52
ATOM     50  C   ASP A   3      16.203  30.065   4.788  0.00  0.00    +0.241 C 
ATOM     51  O   ASP A   3      15.140  30.513   5.218  0.00  0.00    -0.273 OA
ATOM     52  N   THR A   4      16.626  30.278   3.545  0.00  0.00    -0.295 N 
ATOM     53  H   THR A   4      17.553  29.904   3.256  0.00  0.00    +0.150 HD
BRANCH  50  54
ATOM     54  CA  ASP A   3      17.163  29.316   5.709  0.00  0.00    +0.160 C 
BRANCH  54  56
ATOM     55  C   LEU A   2      19.299  30.123   6.541  0.00  0.00    +0.241 C 
ATOM     56  N   ASP A   3      17.973  30.226   6.514  0.00  0.00    -0.297 N 
ATOM     57  H   ASP A   3      17.506  30.966   7.075  0.00  0.00    +0.150 HD
ATOM     58  O   LEU A   2      19.929  29.444   5.730  0.00  0.00    -0.273 OA
BRANCH  55  59
ATOM     59  CA  LEU A   2      20.022  30.830   7.684  0.00  0.00    +0.149 C 
BRANCH  59  62
ATOM     60  C   LEU A   1      19.891  29.135   9.422  0.00  0.00    +0.238 C 
ATOM     61  O   LEU A   1      18.700  29.379   9.590  0.00  0.00    -0.274 OA
ATOM     62  N   LEU A   2      20.632  29.822   8.556  0.00  0.00    -0.297 N 
ATOM     63  H   LEU A   2      21.655  29.642   8.497  0.00  0.00    +0.150 HD
BRANCH  60  64
ATOM     64  CA  LEU A   1      20.584  28.038  10.235  0.00  0.00    +0.145 C 
BRANCH  64  65
ATOM     65  N   LEU A   1      20.339  28.240  11.659  0.00  0.00    -0.238 NA
ATOM     66  H   LEU A   1      19.434  27.913  12.053  0.00  0.00    +0.142 HD
ENDBRANCH  64  65
BRANCH  64  67
ATOM     67  CB  LEU A   1      20.031  26.667   9.857  0.00  0.00    +0.026 C 
BRANCH  67  68
ATOM     68  CG  LEU A   1      20.221  26.132   8.451  0.00  0.00    +0.002 C 
ATOM     69  CD2 LEU A   1      19.409  24.847   8.338  0.00  0.00    +0.000 C 
ATOM     70  CD1 LEU A   1      21.690  25.891   8.141  0.00  0.00    +0.000 C 
ENDBRANCH  67  68
ENDBRANCH  64  67
ENDBRANCH  60  64
ENDBRANCH  59  62
BRANCH  59  71
ATOM     71  CB  LEU A   2      21.094  31.765   7.115  0.00  0.00    +0.029 C 
BRANCH  71  72
ATOM     72  CG  LEU A   2      21.952  32.549   8.116  0.00  0.00    +0.002 C 
ATOM     73  CD2 LEU A   2      21.086  33.362   9.061  0.00  0.00    +0.000 C 
ATOM     74  CD1 LEU A   2      22.914  33.453   7.371  0.00  0.00    +0.000 C 
ENDBRANCH  71  72
ENDBRANCH  59  71
ENDBRANCH  55  59
ENDBRANCH  54  56
BRANCH  54  75
ATOM     75  CB  ASP A   3      16.376  28.388   6.631  0.00  0.00    +0.143 C 
BRANCH  75  76
ATOM     76  CG  ASP A   3      15.679  27.272   5.887  0.00  0.00    +0.367 C 
ATOM     77  OD2 ASP A   3      15.146  26.366   6.566  0.00  0.00    -0.246 OA
ATOM     78  OD1 ASP A   3      15.681  27.282   4.642  0.00  0.00    -0.246 OA
ENDBRANCH  75  76
ENDBRANCH  54  75
ENDBRANCH  50  54
ENDBRANCH  49  52
BRANCH  49  79
ATOM     79  CB  THR A   4      16.629  31.337   1.296  0.00  0.00    +0.137 C 
ATOM     80  CG2 THR A   4      17.801  32.266   1.593  0.00  0.00    +0.034 C 
BRANCH  79  81
ATOM     81  OG1 THR A   4      17.128  30.119   0.732  0.00  0.00    -0.382 OA
ATOM     82  HG1 THR A   4      16.368  29.526   0.506  0.00  0.00    +0.210 HD
ENDBRANCH  79  81
ENDBRANCH  49  79
ENDBRANCH  45  49
ENDBRANCH  44  46
ENDBRANCH   1  44
TORSDOF 35
REMARK  Name = ../refined-set-2016/4cps/4cps_pocket.pdb
REMARK  231 active torsions:
REMARK  status: ('A' for Active; 'I' for Inactive)
REMARK    1  A    between atoms: _1  and  _3
REMARK    2  A    between atoms: _3  and  _4
REMARK    3  A    between atoms: _3  and  _6
REMARK    4  A    between atoms: _6  and  _7
REMARK    5  A    between atoms: _7  and  _8
REMARK    6  A    between atoms: _8  and  _9
REMARK    7  A    between atoms: _18  and  _20
REMARK    8  A    between atoms: _20  and  _21
REMARK    9  A    between atoms: _20  and  _23
REMARK   10  A    between atoms: _23  and  _24
REMARK   11  A    between atoms: _27  and  _29
REMARK   12  A    between atoms: _29  and  _30
REMARK   13  A    between atoms: _29  and  _32
REMARK   14  A    between atoms: _32  and  _33
REMARK   15  A    between atoms: _36  and  _38
REMARK   16  A    between atoms: _38  and  _39
REMARK   17  A    between atoms: _38  and  _41
REMARK   18  A    between atoms: _41  and  _42
REMARK   19  A    between atoms: _45  and  _47
REMARK   20  A    between atoms: _47  and  _48
REMARK   21  A    between atoms: _47  and  _50
REMARK   22  A    between atoms: _50  and  _51
REMARK   23  A    between atoms: _54  and  _56
REMARK   24  A    between atoms: _56  and  _57
REMARK   25  A    between atoms: _59  and  _61
REMARK   26  A    between atoms: _61  and  _62
REMARK   27  A    between atoms: _65  and  _67
REMARK   28  A    between atoms: _67  and  _68
REMARK   29  A    between atoms: _67  and  _70
REMARK   30  A    between atoms: _70  and  _71
REMARK   31  A    between atoms: _74  and  _76
REMARK   32  A    between atoms: _76  and  _77
REMARK   33  A    between atoms: _76  and  _79
REMARK   34  A    between atoms: _79  and  _80
REMARK   35  A    between atoms: _83  and  _85
REMARK   36  A    between atoms: _85  and  _86
REMARK   37  A    between atoms: _85  and  _88
REMARK   38  A    between atoms: _88  and  _89
REMARK   39  A    between atoms: _92  and  _94
REMARK   40  A    between atoms: _94  and  _95
REMARK   41  A    between atoms: _94  and  _97
REMARK   42  A    between atoms: _100  and  _102
REMARK   43  A    between atoms: _102  and  _103
REMARK   44  A    between atoms: _102  and  _105
REMARK   45  A    between atoms: _105  and  _106
REMARK   46  A    between atoms: _106  and  _107
REMARK   47  A    between atoms: _107  and  _108
REMARK   48  A    between atoms: _108  and  _109
REMARK   49  A    between atoms: _113  and  _115
REMARK   50  A    between atoms: _115  and  _116
REMARK   51  A    between atoms: _115  and  _118
REMARK   52  A    between atoms: _118  and  _119
REMARK   53  A    between atoms: _119  and  _120
REMARK   54  A    between atoms: _122  and  _124
REMARK   55  A    between atoms: _124  and  _125
REMARK   56  A    between atoms: _124  and  _127
REMARK   57  A    between atoms: _127  and  _128
REMARK   58  A    between atoms: _131  and  _133
REMARK   59  A    between atoms: _133  and  _134
REMARK   60  A    between atoms: _136  and  _138
REMARK   61  A    between atoms: _138  and  _139
REMARK   62  A    between atoms: _141  and  _143
REMARK   63  A    between atoms: _143  and  _144
REMARK   64  A    between atoms: _143  and  _146
REMARK   65  A    between atoms: _146  and  _147
REMARK   66  A    between atoms: _150  and  _152
REMARK   67  A    between atoms: _152  and  _153
REMARK   68  A    between atoms: _155  and  _157
REMARK   69  A    between atoms: _157  and  _158
REMARK   70  A    between atoms: _160  and  _162
REMARK   71  A    between atoms: _162  and  _163
REMARK   72  A    between atoms: _162  and  _165
REMARK   73  A    between atoms: _165  and  _166
REMARK   74  A    between atoms: _172  and  _174
REMARK   75  A    between atoms: _174  and  _175
REMARK   76  A    between atoms: _174  and  _177
REMARK   77  A    between atoms: _177  and  _178
REMARK   78  A    between atoms: _181  and  _183
REMARK   79  A    between atoms: _183  and  _184
REMARK   80  A    between atoms: _183  and  _186
REMARK   81  A    between atoms: _186  and  _187
REMARK   82  A    between atoms: _190  and  _192
REMARK   83  A    between atoms: _192  and  _193
REMARK   84  A    between atoms: _192  and  _195
REMARK   85  A    between atoms: _195  and  _196
REMARK   86  A    between atoms: _200  and  _201
REMARK   87  A    between atoms: _206  and  _208
REMARK   88  A    between atoms: _208  and  _209
REMARK   89  A    between atoms: _208  and  _211
REMARK   90  A    between atoms: _211  and  _212
REMARK   91  A    between atoms: _215  and  _217
REMARK   92  A    between atoms: _217  and  _218
REMARK   93  A    between atoms: _217  and  _220
REMARK   94  A    between atoms: _220  and  _221
REMARK   95  A    between atoms: _226  and  _228
REMARK   96  A    between atoms: _228  and  _229
REMARK   97  A    between atoms: _228  and  _231
REMARK   98  A    between atoms: _234  and  _236
REMARK   99  A    between atoms: _236  and  _237
REMARK  100  A    between atoms: _236  and  _239
REMARK  101  A    between atoms: _239  and  _240
REMARK  102  A    between atoms: _243  and  _245
REMARK  103  A    between atoms: _245  and  _246
REMARK  104  A    between atoms: _248  and  _250
REMARK  105  A    between atoms: _250  and  _251
REMARK  106  A    between atoms: _250  and  _253
REMARK  107  A    between atoms: _253  and  _254
REMARK  108  A    between atoms: _254  and  _255
REMARK  109  A    between atoms: _255  and  _256
REMARK  110  A    between atoms: _265  and  _267
REMARK  111  A    between atoms: _267  and  _268
REMARK  112  A    between atoms: _267  and  _270
REMARK  113  A    between atoms: _270  and  _271
REMARK  114  A    between atoms: _276  and  _278
REMARK  115  A    between atoms: _278  and  _279
REMARK  116  A    between atoms: _278  and  _281
REMARK  117  A    between atoms: _281  and  _282
REMARK  118  A    between atoms: _282  and  _283
REMARK  119  A    between atoms: _283  and  _284
REMARK  120  A    between atoms: _293  and  _295
REMARK  121  A    between atoms: _295  and  _296
REMARK  122  A    between atoms: _295  and  _298
REMARK  123  A    between atoms: _298  and  _299
REMARK  124  A    between atoms: _302  and  _304
REMARK  125  A    between atoms: _304  and  _305
REMARK  126  A    between atoms: _304  and  _307
REMARK  127  A    between atoms: _307  and  _308
REMARK  128  A    between atoms: _311  and  _313
REMARK  129  A    between atoms: _313  and  _314
REMARK  130  A    between atoms: _313  and  _316
REMARK  131  A    between atoms: _316  and  _317
REMARK  132  A    between atoms: _320  and  _322
REMARK  133  A    between atoms: _322  and  _323
REMARK  134  A    between atoms: _322  and  _325
REMARK  135  A    between atoms: _325  and  _326
REMARK  136  A    between atoms: _329  and  _331
REMARK  137  A    between atoms: _331  and  _332
REMARK  138  A    between atoms: _331  and  _334
REMARK  139  A    between atoms: _334  and  _335
REMARK  140  A    between atoms: _338  and  _340
REMARK  141  A    between atoms: _340  and  _341
REMARK  142  A    between atoms: _343  and  _345
REMARK  143  A    between atoms: _345  and  _346
REMARK  144  A    between atoms: _349  and  _351
REMARK  145  A    between atoms: _351  and  _352
REMARK  146  A    between atoms: _351  and  _354
REMARK  147  A    between atoms: _354  and  _355
REMARK  148  A    between atoms: _358  and  _360
REMARK  149  A    between atoms: _360  and  _361
REMARK  150  A    between atoms: _360  and  _363
REMARK  151  A    between atoms: _363  and  _364
REMARK  152  A    between atoms: _367  and  _369
REMARK  153  A    between atoms: _369  and  _370
REMARK  154  A    between atoms: _369  and  _372
REMARK  155  A    between atoms: _372  and  _373
REMARK  156  A    between atoms: _376  and  _378
REMARK  157  A    between atoms: _378  and  _379
REMARK  158  A    between atoms: _378  and  _381
REMARK  159  A    between atoms: _384  and  _386
REMARK  160  A    between atoms: _386  and  _387
REMARK  161  A    between atoms: _386  and  _389
REMARK  162  A    between atoms: _389  and  _390
REMARK  163  A    between atoms: _390  and  _391
REMARK  164  A    between atoms: _391  and  _392
REMARK  165  A    between atoms: _392  and  _393
REMARK  166  A    between atoms: _397  and  _399
REMARK  167  A    between atoms: _399  and  _400
REMARK  168  A    between atoms: _399  and  _402
REMARK  169  A    between atoms: _402  and  _403
REMARK  170  A    between atoms: _403  and  _404
REMARK  171  A    between atoms: _406  and  _408
REMARK  172  A    between atoms: _408  and  _409
REMARK  173  A    between atoms: _408  and  _411
REMARK  174  A    between atoms: _411  and  _412
REMARK  175  A    between atoms: _415  and  _417
REMARK  176  A    between atoms: _417  and  _418
REMARK  177  A    between atoms: _420  and  _422
REMARK  178  A    between atoms: _422  and  _423
REMARK  179  A    between atoms: _425  and  _427
REMARK  180  A    between atoms: _427  and  _428
REMARK  181  A    between atoms: _427  and  _430
REMARK  182  A    between atoms: _430  and  _431
REMARK  183  A    between atoms: _434  and  _436
REMARK  184  A    between atoms: _436  and  _437
REMARK  185  A    between atoms: _439  and  _441
REMARK  186  A    between atoms: _441  and  _442
REMARK  187  A    between atoms: _444  and  _446
REMARK  188  A    between atoms: _446  and  _447
REMARK  189  A    between atoms: _446  and  _449
REMARK  190  A    between atoms: _449  and  _450
REMARK  191  A    between atoms: _456  and  _458
REMARK  192  A    between atoms: _458  and  _459
REMARK  193  A    between atoms: _458  and  _461
REMARK  194  A    between atoms: _461  and  _462
REMARK  195  A    between atoms: _465  and  _467
REMARK  196  A    between atoms: _467  and  _468
REMARK  197  A    between atoms: _467  and  _470
REMARK  198  A    between atoms: _473  and  _475
REMARK  199  A    between atoms: _475  and  _476
REMARK  200  A    between atoms: _475  and  _478
REMARK  201  A    between atoms: _478  and  _479
REMARK  202  A    between atoms: _482  and  _484
REMARK  203  A    between atoms: _484  and  _485
REMARK  204  A    between atoms: _484  and  _487
REMARK  205  A    between atoms: _485  and  _486
REMARK  206  A    between atoms: _485  and  _491
REMARK  207  A    between atoms: _487  and  _488
REMARK  208  A    between atoms: _492  and  _493
REMARK  209  A    between atoms: _498  and  _500
REMARK  210  A    between atoms: _500  and  _501
REMARK  211  A    between atoms: _500  and  _503
REMARK  212  A    between atoms: _503  and  _504
REMARK  213  A    between atoms: _507  and  _509
REMARK  214  A    between atoms: _509  and  _510
REMARK  215  A    between atoms: _509  and  _512
REMARK  216  A    between atoms: _512  and  _513
REMARK  217  A    between atoms: _518  and  _520
REMARK  218  A    between atoms: _520  and  _521
REMARK  219  A    between atoms: _520  and  _523
REMARK  220  A    between atoms: _526  and  _528
REMARK  221  A    between atoms: _528  and  _529
REMARK  222  A    between atoms: _528  and  _531
REMARK  223  A    between atoms: _531  and  _532
REMARK  224  A    between atoms: _535  and  _537
REMARK  225  A    between atoms: _537  and  _538
REMARK  226  A    between atoms: _540  and  _542
REMARK  227  A    between atoms: _542  and  _543
REMARK  228  A    between atoms: _542  and  _545
REMARK  229  A    between atoms: _545  and  _546
REMARK  230  A    between atoms: _546  and  _547
REMARK  231  A    between atoms: _547  and  _548
REMARK                            x       y       z     vdW  Elec       q    Type
REMARK                         _______ _______ _______ _____ _____    ______ ____
ROOT
ATOM      1  C   GLY A   5       7.974  19.622   5.619  0.00  0.00    +0.243 C 
ATOM      2  O   GLY A   5       6.976  18.909   5.630  0.00  0.00    -0.273 OA
ATOM      3  N   ILE A   6       9.155  19.179   5.210  0.00  0.00    -0.297 N 
ATOM      4  H   ILE A   6       9.961  19.832   5.135  0.00  0.00    +0.150 HD
ENDROOT
BRANCH   3   5
ATOM      5  CA  ILE A   6       9.316  17.782   4.868  0.00  0.00    +0.149 C 
BRANCH   5   6
ATOM      6  C   ILE A   6       9.040  16.953   6.119  0.00  0.00    +0.241 C 
ATOM      7  O   ILE A   6       9.414  17.353   7.227  0.00  0.00    -0.273 OA
ATOM      8  N   GLY A   7       8.185  15.949   5.967  0.00  0.00    -0.295 N 
ATOM      9  H   GLY A   7       7.749  15.795   5.036  0.00  0.00    +0.150 HD
BRANCH   8  10
ATOM     10  CA  GLY A   7       7.840  15.058   7.062  0.00  0.00    +0.176 C 
BRANCH  10  11
ATOM     11  C   GLY A   7       6.524  15.402   7.745  0.00  0.00    +0.243 C 
ATOM     12  O   GLY A   7       6.016  14.618   8.534  0.00  0.00    -0.273 OA
ATOM     13  N   GLY A   8       5.985  16.580   7.458  0.00  0.00    -0.295 N 
ATOM     14  H   GLY A   8       6.517  17.250   6.866  0.00  0.00    +0.150 HD
BRANCH  13  15
ATOM     15  CA  GLY A   8       4.659  16.961   7.954  0.00  0.00    +0.176 C 
BRANCH  15  16
ATOM     16  C   GLY A   8       4.740  18.140   8.905  0.00  0.00    +0.243 C 
ATOM     17  N   PHE A   9       3.795  18.226   9.839  0.00  0.00    -0.297 N 
ATOM     18  H   PHE A   9       3.172  17.411  10.011  0.00  0.00    +0.150 HD
ATOM     19  O   GLY A   8       5.571  19.018   8.721  0.00  0.00    -0.273 OA
BRANCH  17  20
ATOM     20  CA  PHE A   9       3.615  19.443  10.628  0.00  0.00    +0.153 C 
BRANCH  20  21
ATOM     21  C   PHE A   9       4.050  19.262  12.077  0.00  0.00    +0.241 C 
ATOM     22  N   ILE A  10       4.409  20.375  12.712  0.00  0.00    -0.298 N 
ATOM     23  H   ILE A  10       4.596  21.232  12.154  0.00  0.00    +0.150 HD
ATOM     24  O   PHE A   9       3.963  18.167  12.637  0.00  0.00    -0.273 OA
BRANCH  22  25
ATOM     25  CA  ILE A  10       4.549  20.436  14.162  0.00  0.00    +0.137 C 
BRANCH  25  26
ATOM     26  C   ILE A  10       3.805  21.647  14.720  0.00  0.00    +0.227 C 
ATOM     27  O   ILE A  10       3.570  22.640  14.018  0.00  0.00    -0.286 OA
ENDBRANCH  25  26
BRANCH  25  28
ATOM     28  CB  ILE A  10       6.035  20.502  14.613  0.00  0.00    +0.026 C 
ATOM     29  CG2 ILE A  10       6.752  19.217  14.246  0.00  0.00    +0.002 C 
BRANCH  28  30
ATOM     30  CG1 ILE A  10       6.749  21.709  13.994  0.00  0.00    +0.002 C 
ATOM     31  CD1 ILE A  10       8.110  22.002  14.605  0.00  0.00    +0.000 C 
ENDBRANCH  28  30
ENDBRANCH  25  28
ENDBRANCH  22  25
ENDBRANCH  20  21
BRANCH  20  32
ATOM     32  CB  PHE A   9       2.145  19.871  10.595  0.00  0.00    +0.055 C 
BRANCH  32  33
ATOM     33  CG  PHE A   9       1.703  20.441   9.273  0.00  0.00    -0.020 A 
ATOM     34  CD2 PHE A   9       1.478  21.793   9.123  0.00  0.00    -0.004 A 
ATOM     35  CE2 PHE A   9       1.100  22.324   7.910  0.00  0.00    -0.000 A 
ATOM     36  CZ  PHE A   9       0.888  21.487   6.838  0.00  0.00    -0.000 A 
ATOM     37  CE1 PHE A   9       1.033  20.121   6.997  0.00  0.00    -0.000 A 
ATOM     38  CD1 PHE A   9       1.418  19.602   8.209  0.00  0.00    -0.004 A 
ENDBRANCH  32  33
ENDBRANCH  20  32
ENDBRANCH  17  20
ENDBRANCH  15  16
ENDBRANCH  13  15
ENDBRANCH  10  11
ENDBRANCH   8  10
ENDBRANCH   5   6
BRANCH   5  39
ATOM     39  CB  ILE A   6      10.731  17.492   4.332  0.00  0.00    +0.027 C 
ATOM     40  CG2 ILE A   6      11.128  16.056   4.631  0.00  0.00    +0.002 C 
BRANCH  39  41
ATOM     41  CG1 ILE A   6      10.785  17.736   2.819  0.00  0.00    +0.002 C 
ATOM     42  CD1 ILE A   6      10.823  19.200   2.439  0.00  0.00    +0.000 C 
ENDBRANCH  39  41
ENDBRANCH   5  39
ENDBRANCH   3   5
BRANCH   1  43
ATOM     43  CA  GLY A   5       7.916  21.028   6.167  0.00  0.00    +0.176 C 
BRANCH  43  45
ATOM     44  C   GLY A   4       6.082  22.311   7.119  0.00  0.00    +0.243 C 
ATOM     45  N   GLY A   5       6.678  21.144   6.917  0.00  0.00    -0.295 N 
ATOM     46  H   GLY A   5       6.245  20.283   7.309  0.00  0.00    +0.150 HD
ATOM     47  O   GLY A   4       6.486  23.370   6.639  0.00  0.00    -0.273 OA
BRANCH  44  48
ATOM     48  CA  GLY A   4       4.778  22.244   7.883  0.00  0.00    +0.176 C 
BRANCH  48  51
ATOM     49  C   ILE A   3       4.372  23.417   9.975  0.00  0.00    +0.241 C 
ATOM     50  O   ILE A   3       4.508  22.404  10.664  0.00  0.00    -0.273 OA
ATOM     51  N   GLY A   4       4.527  23.442   8.658  0.00  0.00    -0.295 N 
ATOM     52  H   GLY A   4       4.466  24.355   8.164  0.00  0.00    +0.150 HD
BRANCH  49  53
ATOM     53  CA  ILE A   3       3.882  24.715  10.580  0.00  0.00    +0.149 C 
BRANCH  53  55
ATOM     54  C   MET A   2       1.804  24.980  11.791  0.00  0.00    +0.241 C 
ATOM     55  N   ILE A   3       3.024  24.459  11.719  0.00  0.00    -0.297 N 
ATOM     56  H   ILE A   3       3.369  23.857  12.494  0.00  0.00    +0.150 HD
ATOM     57  O   MET A   2       1.338  25.713  10.927  0.00  0.00    -0.273 OA
BRANCH  54  58
ATOM     58  CA  MET A   2       0.964  24.563  12.976  0.00  0.00    +0.149 C 
BRANCH  58  61
ATOM     59  C   LYS A   1       0.859  26.219  14.747  0.00  0.00    +0.238 C 
ATOM     60  O   LYS A   1       1.603  25.573  15.476  0.00  0.00    -0.274 OA
ATOM     61  N   MET A   2       0.388  25.744  13.595  0.00  0.00    -0.297 N 
ATOM     62  H   MET A   2      -0.407  26.228  13.130  0.00  0.00    +0.150 HD
BRANCH  59  63
ATOM     63  CA  LYS A   1       0.415  27.608  15.152  0.00  0.00    +0.145 C 
BRANCH  63  64
ATOM     64  N   LYS A   1       0.315  27.647  16.607  0.00  0.00    -0.238 NA
ATOM     65  H   LYS A   1       0.974  27.069  17.167  0.00  0.00    +0.142 HD
ENDBRANCH  63  64
BRANCH  63  66
ATOM     66  CB  LYS A   1       1.437  28.645  14.663  0.00  0.00    +0.026 C 
BRANCH  66  67
ATOM     67  CG  LYS A   1       1.419  28.913  13.166  0.00  0.00    -0.000 C 
BRANCH  67  68
ATOM     68  CD  LYS A   1       2.497  29.910  12.775  0.00  0.00    -0.024 C 
BRANCH  68  69
ATOM     69  CE  LYS A   1       2.600  30.070  11.268  0.00  0.00    -0.086 C 
BRANCH  69  70
ATOM     70  NZ  LYS A   1       1.496  30.883  10.705  0.00  0.00    +0.380 N 
ATOM     71  HZ1 LYS A   1       1.515  31.832  11.130  0.00  0.00    -0.089 HD
ATOM     72  HZ2 LYS A   1       0.587  30.425  10.917  0.00  0.00    -0.089 HD
ATOM     73  HZ3 LYS A   1       1.615  30.961   9.675  0.00  0.00    -0.089 HD
ENDBRANCH  69  70
ENDBRANCH  68  69
ENDBRANCH  67  68
ENDBRANCH  66  67
ENDBRANCH  63  66
ENDBRANCH  59  63
ENDBRANCH  58  61
BRANCH  58  74
ATOM     74  CB  MET A   2      -0.142  23.614  12.513  0.00  0.00    +0.041 C 
BRANCH  74  75
ATOM     75  CG  MET A   2      -0.866  22.937  13.654  0.00  0.00    +0.060 C 
BRANCH  75  76
ATOM     76  SD  MET A   2       0.070  21.537  14.294  0.00  0.00    -0.139 S 
ATOM     77  CE  MET A   2      -0.548  20.247  13.215  0.00  0.00    +0.069 C 
ENDBRANCH  75  76
ENDBRANCH  74  75
ENDBRANCH  58  74
ENDBRANCH  54  58
ENDBRANCH  53  55
BRANCH  53  78
ATOM     78  CB  ILE A   3       5.091  25.604  10.934  0.00  0.00    +0.027 C 
ATOM     79  CG2 ILE A   3       4.626  26.999  11.317  0.00  0.00    +0.002 C 
BRANCH  78  80
ATOM     80  CG1 ILE A   3       5.939  24.955  12.031  0.00  0.00    +0.002 C 
ATOM     81  CD1 ILE A   3       7.228  25.696  12.336  0.00  0.00    +0.000 C 
ENDBRANCH  78  80
ENDBRANCH  53  78
ENDBRANCH  49  53
ENDBRANCH  48  51
ENDBRANCH  44  48
ENDBRANCH  43  45
ENDBRANCH   1  43
TORSDOF 36
REMARK  Name = ../refined-set-2016/4cps/4cps_pocket.pdb
REMARK  231 active torsions:
REMARK  status: ('A' for Active; 'I' for Inactive)
REMARK    1  A    between atoms: _1  and  _3
REMARK    2  A    between atoms: _3  and  _4
REMARK    3  A    between atoms: _3  and  _6
REMARK    4  A    between atoms: _6  and  _7
REMARK    5  A    between atoms: _7  and  _8
REMARK    6  A    between atoms: _8  and  _9
REMARK    7  A    between atoms: _18  and  _20
REMARK    8  A    between atoms: _20  and  _21
REMARK    9  A    between atoms: _20  and  _23
REMARK   10  A    between atoms: _23  and  _24
REMARK   11  A    between atoms: _27  and  _29
REMARK   12  A    between atoms: _29  and  _30
REMARK   13  A    between atoms: _29  and  _32
REMARK   14  A    between atoms: _32  and  _33
REMARK   15  A    between atoms: _36  and  _38
REMARK   16  A    between atoms: _38  and  _39
REMARK   17  A    between atoms: _38  and  _41
REMARK   18  A    between atoms: _41  and  _42
REMARK   19  A    between atoms: _45  and  _47
REMARK   20  A    between atoms: _47  and  _48
REMARK   21  A    between atoms: _47  and  _50
REMARK   22  A    between atoms: _50  and  _51
REMARK   23  A    between atoms: _54  and  _56
REMARK   24  A    between atoms: _56  and  _57
REMARK   25  A    between atoms: _59  and  _61
REMARK   26  A    between atoms: _61  and  _62
REMARK   27  A    between atoms: _65  and  _67
REMARK   28  A    between atoms: _67  and  _68
REMARK   29  A    between atoms: _67  and  _70
REMARK   30  A    between atoms: _70  and  _71
REMARK   31  A    between atoms: _74  and  _76
REMARK   32  A    between atoms: _76  and  _77
REMARK   33  A    between atoms: _76  and  _79
REMARK   34  A    between atoms: _79  and  _80
REMARK   35  A    between atoms: _83  and  _85
REMARK   36  A    between atoms: _85  and  _86
REMARK   37  A    between atoms: _85  and  _88
REMARK   38  A    between atoms: _88  and  _89
REMARK   39  A    between atoms: _92  and  _94
REMARK   40  A    between atoms: _94  and  _95
REMARK   41  A    between atoms: _94  and  _97
REMARK   42  A    between atoms: _100  and  _102
REMARK   43  A    between atoms: _102  and  _103
REMARK   44  A    between atoms: _102  and  _105
REMARK   45  A    between atoms: _105  and  _106
REMARK   46  A    between atoms: _106  and  _107
REMARK   47  A    between atoms: _107  and  _108
REMARK   48  A    between atoms: _108  and  _109
REMARK   49  A    between atoms: _113  and  _115
REMARK   50  A    between atoms: _115  and  _116
REMARK   51  A    between atoms: _115  and  _118
REMARK   52  A    between atoms: _118  and  _119
REMARK   53  A    between atoms: _119  and  _120
REMARK   54  A    between atoms: _122  and  _124
REMARK   55  A    between atoms: _124  and  _125
REMARK   56  A    between atoms: _124  and  _127
REMARK   57  A    between atoms: _127  and  _128
REMARK   58  A    between atoms: _131  and  _133
REMARK   59  A    between atoms: _133  and  _134
REMARK   60  A    between atoms: _136  and  _138
REMARK   61  A    between atoms: _138  and  _139
REMARK   62  A    between atoms: _141  and  _143
REMARK   63  A    between atoms: _143  and  _144
REMARK   64  A    between atoms: _143  and  _146
REMARK   65  A    between atoms: _146  and  _147
REMARK   66  A    between atoms: _150  and  _152
REMARK   67  A    between atoms: _152  and  _153
REMARK   68  A    between atoms: _155  and  _157
REMARK   69  A    between atoms: _157  and  _158
REMARK   70  A    between atoms: _160  and  _162
REMARK   71  A    between atoms: _162  and  _163
REMARK   72  A    between atoms: _162  and  _165
REMARK   73  A    between atoms: _165  and  _166
REMARK   74  A    between atoms: _172  and  _174
REMARK   75  A    between atoms: _174  and  _175
REMARK   76  A    between atoms: _174  and  _177
REMARK   77  A    between atoms: _177  and  _178
REMARK   78  A    between atoms: _181  and  _183
REMARK   79  A    between atoms: _183  and  _184
REMARK   80  A    between atoms: _183  and  _186
REMARK   81  A    between atoms: _186  and  _187
REMARK   82  A    between atoms: _190  and  _192
REMARK   83  A    between atoms: _192  and  _193
REMARK   84  A    between atoms: _192  and  _195
REMARK   85  A    between atoms: _195  and  _196
REMARK   86  A    between atoms: _200  and  _201
REMARK   87  A    between atoms: _206  and  _208
REMARK   88  A    between atoms: _208  and  _209
REMARK   89  A    between atoms: _208  and  _211
REMARK   90  A    between atoms: _211  and  _212
REMARK   91  A    between atoms: _215  and  _217
REMARK   92  A    between atoms: _217  and  _218
REMARK   93  A    between atoms: _217  and  _220
REMARK   94  A    between atoms: _220  and  _221
REMARK   95  A    between atoms: _226  and  _228
REMARK   96  A    between atoms: _228  and  _229
REMARK   97  A    between atoms: _228  and  _231
REMARK   98  A    between atoms: _234  and  _236
REMARK   99  A    between atoms: _236  and  _237
REMARK  100  A    between atoms: _236  and  _239
REMARK  101  A    between atoms: _239  and  _240
REMARK  102  A    between atoms: _243  and  _245
REMARK  103  A    between atoms: _245  and  _246
REMARK  104  A    between atoms: _248  and  _250
REMARK  105  A    between atoms: _250  and  _251
REMARK  106  A    between atoms: _250  and  _253
REMARK  107  A    between atoms: _253  and  _254
REMARK  108  A    between atoms: _254  and  _255
REMARK  109  A    between atoms: _255  and  _256
REMARK  110  A    between atoms: _265  and  _267
REMARK  111  A    between atoms: _267  and  _268
REMARK  112  A    between atoms: _267  and  _270
REMARK  113  A    between atoms: _270  and  _271
REMARK  114  A    between atoms: _276  and  _278
REMARK  115  A    between atoms: _278  and  _279
REMARK  116  A    between atoms: _278  and  _281
REMARK  117  A    between atoms: _281  and  _282
REMARK  118  A    between atoms: _282  and  _283
REMARK  119  A    between atoms: _283  and  _284
REMARK  120  A    between atoms: _293  and  _295
REMARK  121  A    between atoms: _295  and  _296
REMARK  122  A    between atoms: _295  and  _298
REMARK  123  A    between atoms: _298  and  _299
REMARK  124  A    between atoms: _302  and  _304
REMARK  125  A    between atoms: _304  and  _305
REMARK  126  A    between atoms: _304  and  _307
REMARK  127  A    between atoms: _307  and  _308
REMARK  128  A    between atoms: _311  and  _313
REMARK  129  A    between atoms: _313  and  _314
REMARK  130  A    between atoms: _313  and  _316
REMARK  131  A    between atoms: _316  and  _317
REMARK  132  A    between atoms: _320  and  _322
REMARK  133  A    between atoms: _322  and  _323
REMARK  134  A    between atoms: _322  and  _325
REMARK  135  A    between atoms: _325  and  _326
REMARK  136  A    between atoms: _329  and  _331
REMARK  137  A    between atoms: _331  and  _332
REMARK  138  A    between atoms: _331  and  _334
REMARK  139  A    between atoms: _334  and  _335
REMARK  140  A    between atoms: _338  and  _340
REMARK  141  A    between atoms: _340  and  _341
REMARK  142  A    between atoms: _343  and  _345
REMARK  143  A    between atoms: _345  and  _346
REMARK  144  A    between atoms: _349  and  _351
REMARK  145  A    between atoms: _351  and  _352
REMARK  146  A    between atoms: _351  and  _354
REMARK  147  A    between atoms: _354  and  _355
REMARK  148  A    between atoms: _358  and  _360
REMARK  149  A    between atoms: _360  and  _361
REMARK  150  A    between atoms: _360  and  _363
REMARK  151  A    between atoms: _363  and  _364
REMARK  152  A    between atoms: _367  and  _369
REMARK  153  A    between atoms: _369  and  _370
REMARK  154  A    between atoms: _369  and  _372
REMARK  155  A    between atoms: _372  and  _373
REMARK  156  A    between atoms: _376  and  _378
REMARK  157  A    between atoms: _378  and  _379
REMARK  158  A    between atoms: _378  and  _381
REMARK  159  A    between atoms: _384  and  _386
REMARK  160  A    between atoms: _386  and  _387
REMARK  161  A    between atoms: _386  and  _389
REMARK  162  A    between atoms: _389  and  _390
REMARK  163  A    between atoms: _390  and  _391
REMARK  164  A    between atoms: _391  and  _392
REMARK  165  A    between atoms: _392  and  _393
REMARK  166  A    between atoms: _397  and  _399
REMARK  167  A    between atoms: _399  and  _400
REMARK  168  A    between atoms: _399  and  _402
REMARK  169  A    between atoms: _402  and  _403
REMARK  170  A    between atoms: _403  and  _404
REMARK  171  A    between atoms: _406  and  _408
REMARK  172  A    between atoms: _408  and  _409
REMARK  173  A    between atoms: _408  and  _411
REMARK  174  A    between atoms: _411  and  _412
REMARK  175  A    between atoms: _415  and  _417
REMARK  176  A    between atoms: _417  and  _418
REMARK  177  A    between atoms: _420  and  _422
REMARK  178  A    between atoms: _422  and  _423
REMARK  179  A    between atoms: _425  and  _427
REMARK  180  A    between atoms: _427  and  _428
REMARK  181  A    between atoms: _427  and  _430
REMARK  182  A    between atoms: _430  and  _431
REMARK  183  A    between atoms: _434  and  _436
REMARK  184  A    between atoms: _436  and  _437
REMARK  185  A    between atoms: _439  and  _441
REMARK  186  A    between atoms: _441  and  _442
REMARK  187  A    between atoms: _444  and  _446
REMARK  188  A    between atoms: _446  and  _447
REMARK  189  A    between atoms: _446  and  _449
REMARK  190  A    between atoms: _449  and  _450
REMARK  191  A    between atoms: _456  and  _458
REMARK  192  A    between atoms: _458  and  _459
REMARK  193  A    between atoms: _458  and  _461
REMARK  194  A    between atoms: _461  and  _462
REMARK  195  A    between atoms: _465  and  _467
REMARK  196  A    between atoms: _467  and  _468
REMARK  197  A    between atoms: _467  and  _470
REMARK  198  A    between atoms: _473  and  _475
REMARK  199  A    between atoms: _475  and  _476
REMARK  200  A    between atoms: _475  and  _478
REMARK  201  A    between atoms: _478  and  _479
REMARK  202  A    between atoms: _482  and  _484
REMARK  203  A    between atoms: _484  and  _485
REMARK  204  A    between atoms: _484  and  _487
REMARK  205  A    between atoms: _485  and  _486
REMARK  206  A    between atoms: _485  and  _491
REMARK  207  A    between atoms: _487  and  _488
REMARK  208  A    between atoms: _492  and  _493
REMARK  209  A    between atoms: _498  and  _500
REMARK  210  A    between atoms: _500  and  _501
REMARK  211  A    between atoms: _500  and  _503
REMARK  212  A    between atoms: _503  and  _504
REMARK  213  A    between atoms: _507  and  _509
REMARK  214  A    between atoms: _509  and  _510
REMARK  215  A    between atoms: _509  and  _512
REMARK  216  A    between atoms: _512  and  _513
REMARK  217  A    between atoms: _518  and  _520
REMARK  218  A    between atoms: _520  and  _521
REMARK  219  A    between atoms: _520  and  _523
REMARK  220  A    between atoms: _526  and  _528
REMARK  221  A    between atoms: _528  and  _529
REMARK  222  A    between atoms: _528  and  _531
REMARK  223  A    between atoms: _531  and  _532
REMARK  224  A    between atoms: _535  and  _537
REMARK  225  A    between atoms: _537  and  _538
REMARK  226  A    between atoms: _540  and  _542
REMARK  227  A    between atoms: _542  and  _543
REMARK  228  A    between atoms: _542  and  _545
REMARK  229  A    between atoms: _545  and  _546
REMARK  230  A    between atoms: _546  and  _547
REMARK  231  A    between atoms: _547  and  _548
REMARK                            x       y       z     vdW  Elec       q    Type
REMARK                         _______ _______ _______ _____ _____    ______ ____
ROOT
ATOM      1  CA  LEU A   1       8.059  30.397  16.619  0.00  0.00    +0.133 C 
ENDROOT
BRANCH   1   2
ATOM      2  N   LEU A   1       8.805  31.589  16.264  0.00  0.00    -0.239 NA
ATOM      3  H   LEU A   1       9.438  31.559  15.440  0.00  0.00    +0.142 HD
ENDBRANCH   1   2
BRANCH   1   4
ATOM      4  C   LEU A   1       8.937  29.492  17.467  0.00  0.00    +0.224 C 
ATOM      5  O   LEU A   1      10.136  29.348  17.214  0.00  0.00    -0.287 OA
ENDBRANCH   1   4
BRANCH   1   6
ATOM      6  CB  LEU A   1       7.608  29.662  15.355  0.00  0.00    +0.025 C 
BRANCH   6   7
ATOM      7  CG  LEU A   1       6.949  30.522  14.271  0.00  0.00    +0.002 C 
ATOM      8  CD2 LEU A   1       5.745  31.266  14.824  0.00  0.00    +0.000 C 
ATOM      9  CD1 LEU A   1       6.561  29.663  13.078  0.00  0.00    +0.000 C 
ENDBRANCH   6   7
ENDBRANCH   1   6
TORSDOF 4
REMARK  Name = ../refined-set-2016/4cps/4cps_pocket.pdb
REMARK  231 active torsions:
REMARK  status: ('A' for Active; 'I' for Inactive)
REMARK    1  A    between atoms: _1  and  _3
REMARK    2  A    between atoms: _3  and  _4
REMARK    3  A    between atoms: _3  and  _6
REMARK    4  A    between atoms: _6  and  _7
REMARK    5  A    between atoms: _7  and  _8
REMARK    6  A    between atoms: _8  and  _9
REMARK    7  A    between atoms: _18  and  _20
REMARK    8  A    between atoms: _20  and  _21
REMARK    9  A    between atoms: _20  and  _23
REMARK   10  A    between atoms: _23  and  _24
REMARK   11  A    between atoms: _27  and  _29
REMARK   12  A    between atoms: _29  and  _30
REMARK   13  A    between atoms: _29  and  _32
REMARK   14  A    between atoms: _32  and  _33
REMARK   15  A    between atoms: _36  and  _38
REMARK   16  A    between atoms: _38  and  _39
REMARK   17  A    between atoms: _38  and  _41
REMARK   18  A    between atoms: _41  and  _42
REMARK   19  A    between atoms: _45  and  _47
REMARK   20  A    between atoms: _47  and  _48
REMARK   21  A    between atoms: _47  and  _50
REMARK   22  A    between atoms: _50  and  _51
REMARK   23  A    between atoms: _54  and  _56
REMARK   24  A    between atoms: _56  and  _57
REMARK   25  A    between atoms: _59  and  _61
REMARK   26  A    between atoms: _61  and  _62
REMARK   27  A    between atoms: _65  and  _67
REMARK   28  A    between atoms: _67  and  _68
REMARK   29  A    between atoms: _67  and  _70
REMARK   30  A    between atoms: _70  and  _71
REMARK   31  A    between atoms: _74  and  _76
REMARK   32  A    between atoms: _76  and  _77
REMARK   33  A    between atoms: _76  and  _79
REMARK   34  A    between atoms: _79  and  _80
REMARK   35  A    between atoms: _83  and  _85
REMARK   36  A    between atoms: _85  and  _86
REMARK   37  A    between atoms: _85  and  _88
REMARK   38  A    between atoms: _88  and  _89
REMARK   39  A    between atoms: _92  and  _94
REMARK   40  A    between atoms: _94  and  _95
REMARK   41  A    between atoms: _94  and  _97
REMARK   42  A    between atoms: _100  and  _102
REMARK   43  A    between atoms: _102  and  _103
REMARK   44  A    between atoms: _102  and  _105
REMARK   45  A    between atoms: _105  and  _106
REMARK   46  A    between atoms: _106  and  _107
REMARK   47  A    between atoms: _107  and  _108
REMARK   48  A    between atoms: _108  and  _109
REMARK   49  A    between atoms: _113  and  _115
REMARK   50  A    between atoms: _115  and  _116
REMARK   51  A    between atoms: _115  and  _118
REMARK   52  A    between atoms: _118  and  _119
REMARK   53  A    between atoms: _119  and  _120
REMARK   54  A    between atoms: _122  and  _124
REMARK   55  A    between atoms: _124  and  _125
REMARK   56  A    between atoms: _124  and  _127
REMARK   57  A    between atoms: _127  and  _128
REMARK   58  A    between atoms: _131  and  _133
REMARK   59  A    between atoms: _133  and  _134
REMARK   60  A    between atoms: _136  and  _138
REMARK   61  A    between atoms: _138  and  _139
REMARK   62  A    between atoms: _141  and  _143
REMARK   63  A    between atoms: _143  and  _144
REMARK   64  A    between atoms: _143  and  _146
REMARK   65  A    between atoms: _146  and  _147
REMARK   66  A    between atoms: _150  and  _152
REMARK   67  A    between atoms: _152  and  _153
REMARK   68  A    between atoms: _155  and  _157
REMARK   69  A    between atoms: _157  and  _158
REMARK   70  A    between atoms: _160  and  _162
REMARK   71  A    between atoms: _162  and  _163
REMARK   72  A    between atoms: _162  and  _165
REMARK   73  A    between atoms: _165  and  _166
REMARK   74  A    between atoms: _172  and  _174
REMARK   75  A    between atoms: _174  and  _175
REMARK   76  A    between atoms: _174  and  _177
REMARK   77  A    between atoms: _177  and  _178
REMARK   78  A    between atoms: _181  and  _183
REMARK   79  A    between atoms: _183  and  _184
REMARK   80  A    between atoms: _183  and  _186
REMARK   81  A    between atoms: _186  and  _187
REMARK   82  A    between atoms: _190  and  _192
REMARK   83  A    between atoms: _192  and  _193
REMARK   84  A    between atoms: _192  and  _195
REMARK   85  A    between atoms: _195  and  _196
REMARK   86  A    between atoms: _200  and  _201
REMARK   87  A    between atoms: _206  and  _208
REMARK   88  A    between atoms: _208  and  _209
REMARK   89  A    between atoms: _208  and  _211
REMARK   90  A    between atoms: _211  and  _212
REMARK   91  A    between atoms: _215  and  _217
REMARK   92  A    between atoms: _217  and  _218
REMARK   93  A    between atoms: _217  and  _220
REMARK   94  A    between atoms: _220  and  _221
REMARK   95  A    between atoms: _226  and  _228
REMARK   96  A    between atoms: _228  and  _229
REMARK   97  A    between atoms: _228  and  _231
REMARK   98  A    between atoms: _234  and  _236
REMARK   99  A    between atoms: _236  and  _237
REMARK  100  A    between atoms: _236  and  _239
REMARK  101  A    between atoms: _239  and  _240
REMARK  102  A    between atoms: _243  and  _245
REMARK  103  A    between atoms: _245  and  _246
REMARK  104  A    between atoms: _248  and  _250
REMARK  105  A    between atoms: _250  and  _251
REMARK  106  A    between atoms: _250  and  _253
REMARK  107  A    between atoms: _253  and  _254
REMARK  108  A    between atoms: _254  and  _255
REMARK  109  A    between atoms: _255  and  _256
REMARK  110  A    between atoms: _265  and  _267
REMARK  111  A    between atoms: _267  and  _268
REMARK  112  A    between atoms: _267  and  _270
REMARK  113  A    between atoms: _270  and  _271
REMARK  114  A    between atoms: _276  and  _278
REMARK  115  A    between atoms: _278  and  _279
REMARK  116  A    between atoms: _278  and  _281
REMARK  117  A    between atoms: _281  and  _282
REMARK  118  A    between atoms: _282  and  _283
REMARK  119  A    between atoms: _283  and  _284
REMARK  120  A    between atoms: _293  and  _295
REMARK  121  A    between atoms: _295  and  _296
REMARK  122  A    between atoms: _295  and  _298
REMARK  123  A    between atoms: _298  and  _299
REMARK  124  A    between atoms: _302  and  _304
REMARK  125  A    between atoms: _304  and  _305
REMARK  126  A    between atoms: _304  and  _307
REMARK  127  A    between atoms: _307  and  _308
REMARK  128  A    between atoms: _311  and  _313
REMARK  129  A    between atoms: _313  and  _314
REMARK  130  A    between atoms: _313  and  _316
REMARK  131  A    between atoms: _316  and  _317
REMARK  132  A    between atoms: _320  and  _322
REMARK  133  A    between atoms: _322  and  _323
REMARK  134  A    between atoms: _322  and  _325
REMARK  135  A    between atoms: _325  and  _326
REMARK  136  A    between atoms: _329  and  _331
REMARK  137  A    between atoms: _331  and  _332
REMARK  138  A    between atoms: _331  and  _334
REMARK  139  A    between atoms: _334  and  _335
REMARK  140  A    between atoms: _338  and  _340
REMARK  141  A    between atoms: _340  and  _341
REMARK  142  A    between atoms: _343  and  _345
REMARK  143  A    between atoms: _345  and  _346
REMARK  144  A    between atoms: _349  and  _351
REMARK  145  A    between atoms: _351  and  _352
REMARK  146  A    between atoms: _351  and  _354
REMARK  147  A    between atoms: _354  and  _355
REMARK  148  A    between atoms: _358  and  _360
REMARK  149  A    between atoms: _360  and  _361
REMARK  150  A    between atoms: _360  and  _363
REMARK  151  A    between atoms: _363  and  _364
REMARK  152  A    between atoms: _367  and  _369
REMARK  153  A    between atoms: _369  and  _370
REMARK  154  A    between atoms: _369  and  _372
REMARK  155  A    between atoms: _372  and  _373
REMARK  156  A    between atoms: _376  and  _378
REMARK  157  A    between atoms: _378  and  _379
REMARK  158  A    between atoms: _378  and  _381
REMARK  159  A    between atoms: _384  and  _386
REMARK  160  A    between atoms: _386  and  _387
REMARK  161  A    between atoms: _386  and  _389
REMARK  162  A    between atoms: _389  and  _390
REMARK  163  A    between atoms: _390  and  _391
REMARK  164  A    between atoms: _391  and  _392
REMARK  165  A    between atoms: _392  and  _393
REMARK  166  A    between atoms: _397  and  _399
REMARK  167  A    between atoms: _399  and  _400
REMARK  168  A    between atoms: _399  and  _402
REMARK  169  A    between atoms: _402  and  _403
REMARK  170  A    between atoms: _403  and  _404
REMARK  171  A    between atoms: _406  and  _408
REMARK  172  A    between atoms: _408  and  _409
REMARK  173  A    between atoms: _408  and  _411
REMARK  174  A    between atoms: _411  and  _412
REMARK  175  A    between atoms: _415  and  _417
REMARK  176  A    between atoms: _417  and  _418
REMARK  177  A    between atoms: _420  and  _422
REMARK  178  A    between atoms: _422  and  _423
REMARK  179  A    between atoms: _425  and  _427
REMARK  180  A    between atoms: _427  and  _428
REMARK  181  A    between atoms: _427  and  _430
REMARK  182  A    between atoms: _430  and  _431
REMARK  183  A    between atoms: _434  and  _436
REMARK  184  A    between atoms: _436  and  _437
REMARK  185  A    between atoms: _439  and  _441
REMARK  186  A    between atoms: _441  and  _442
REMARK  187  A    between atoms: _444  and  _446
REMARK  188  A    between atoms: _446  and  _447
REMARK  189  A    between atoms: _446  and  _449
REMARK  190  A    between atoms: _449  and  _450
REMARK  191  A    between atoms: _456  and  _458
REMARK  192  A    between atoms: _458  and  _459
REMARK  193  A    between atoms: _458  and  _461
REMARK  194  A    between atoms: _461  and  _462
REMARK  195  A    between atoms: _465  and  _467
REMARK  196  A    between atoms: _467  and  _468
REMARK  197  A    between atoms: _467  and  _470
REMARK  198  A    between atoms: _473  and  _475
REMARK  199  A    between atoms: _475  and  _476
REMARK  200  A    between atoms: _475  and  _478
REMARK  201  A    between atoms: _478  and  _479
REMARK  202  A    between atoms: _482  and  _484
REMARK  203  A    between atoms: _484  and  _485
REMARK  204  A    between atoms: _484  and  _487
REMARK  205  A    between atoms: _485  and  _486
REMARK  206  A    between atoms: _485  and  _491
REMARK  207  A    between atoms: _487  and  _488
REMARK  208  A    between atoms: _492  and  _493
REMARK  209  A    between atoms: _498  and  _500
REMARK  210  A    between atoms: _500  and  _501
REMARK  211  A    between atoms: _500  and  _503
REMARK  212  A    between atoms: _503  and  _504
REMARK  213  A    between atoms: _507  and  _509
REMARK  214  A    between atoms: _509  and  _510
REMARK  215  A    between atoms: _509  and  _512
REMARK  216  A    between atoms: _512  and  _513
REMARK  217  A    between atoms: _518  and  _520
REMARK  218  A    between atoms: _520  and  _521
REMARK  219  A    between atoms: _520  and  _523
REMARK  220  A    between atoms: _526  and  _528
REMARK  221  A    between atoms: _528  and  _529
REMARK  222  A    between atoms: _528  and  _531
REMARK  223  A    between atoms: _531  and  _532
REMARK  224  A    between atoms: _535  and  _537
REMARK  225  A    between atoms: _537  and  _538
REMARK  226  A    between atoms: _540  and  _542
REMARK  227  A    between atoms: _542  and  _543
REMARK  228  A    between atoms: _542  and  _545
REMARK  229  A    between atoms: _545  and  _546
REMARK  230  A    between atoms: _546  and  _547
REMARK  231  A    between atoms: _547  and  _548
REMARK                            x       y       z     vdW  Elec       q    Type
REMARK                         _______ _______ _______ _____ _____    ______ ____
ROOT
ATOM      1  C   VAL A   5      15.743  29.528  11.700  0.00  0.00    +0.241 C 
ATOM      2  O   VAL A   5      14.793  29.920  12.383  0.00  0.00    -0.273 OA
ATOM      3  N   ILE A   6      16.546  30.358  11.036  0.00  0.00    -0.297 N 
ATOM      4  H   ILE A   6      17.462  30.005  10.693  0.00  0.00    +0.150 HD
ENDROOT
BRANCH   3   5
ATOM      5  CA  ILE A   6      16.180  31.748  10.774  0.00  0.00    +0.149 C 
BRANCH   5   6
ATOM      6  C   ILE A   6      15.540  31.885   9.394  0.00  0.00    +0.241 C 
ATOM      7  N   GLY A   7      14.263  32.255   9.374  0.00  0.00    -0.295 N 
ATOM      8  H   GLY A   7      13.801  32.513  10.269  0.00  0.00    +0.150 HD
ATOM      9  O   ILE A   6      16.158  31.546   8.378  0.00  0.00    -0.273 OA
BRANCH   7  10
ATOM     10  CA  GLY A   7      13.492  32.311   8.147  0.00  0.00    +0.176 C 
BRANCH  10  11
ATOM     11  C   GLY A   7      13.457  33.686   7.509  0.00  0.00    +0.243 C 
ATOM     12  O   GLY A   7      14.001  34.662   8.055  0.00  0.00    -0.273 OA
ATOM     13  N   ARG A   8      12.688  33.798   6.435  0.00  0.00    -0.297 N 
ATOM     14  H   ARG A   8      12.061  33.012   6.169  0.00  0.00    +0.150 HD
BRANCH  13  15
ATOM     15  CA  ARG A   8      12.710  35.006   5.623  0.00  0.00    +0.149 C 
BRANCH  15  16
ATOM     16  C   ARG A   8      12.237  36.234   6.413  0.00  0.00    +0.241 C 
ATOM     17  N   ASN A   9      11.321  36.025   7.356  0.00  0.00    -0.298 N 
ATOM     18  H   ASN A   9      11.006  35.056   7.563  0.00  0.00    +0.150 HD
ATOM     19  O   ARG A   8      12.658  37.362   6.135  0.00  0.00    -0.273 OA
BRANCH  17  20
ATOM     20  CA  ASN A   9      10.756  37.143   8.100  0.00  0.00    +0.146 C 
BRANCH  20  21
ATOM     21  C   ASN A   9      11.819  37.949   8.835  0.00  0.00    +0.227 C 
ATOM     22  O   ASN A   9      11.643  39.146   9.051  0.00  0.00    -0.286 OA
ENDBRANCH  20  21
BRANCH  20  23
ATOM     23  CB  ASN A   9       9.653  36.679   9.057  0.00  0.00    +0.112 C 
BRANCH  23  24
ATOM     24  CG  ASN A   9      10.191  35.935  10.261  0.00  0.00    +0.222 C 
ATOM     25  ND2 ASN A   9       9.886  36.444  11.449  0.00  0.00    -0.329 N 
ATOM     26 HD21 ASN A   9      10.289  36.027  12.312  0.00  0.00    +0.145 HD
ATOM     27 HD22 ASN A   9       9.244  37.259  11.516  0.00  0.00    +0.145 HD
ATOM     28  OD1 ASN A   9      10.946  34.970  10.125  0.00  0.00    -0.275 OA
ENDBRANCH  23  24
ENDBRANCH  20  23
ENDBRANCH  17  20
ENDBRANCH  15  16
BRANCH  15  29
ATOM     29  CB  ARG A   8      11.853  34.813   4.373  0.00  0.00    +0.033 C 
BRANCH  29  30
ATOM     30  CG  ARG A   8      12.432  33.831   3.375  0.00  0.00    +0.045 C 
BRANCH  30  31
ATOM     31  CD  ARG A   8      11.679  33.854   2.053  0.00  0.00    +0.174 C 
BRANCH  31  32
ATOM     32  NE  ARG A   8      10.312  33.364   2.191  0.00  0.00    -0.265 N 
ATOM     33  CZ  ARG A   8       9.241  34.147   2.322  0.00  0.00    +0.342 C 
ATOM     34  NH2 ARG A   8       8.052  33.595   2.544  0.00  0.00    -0.292 N 
ATOM     35 HH21 ARG A   8       7.210  34.197   2.648  0.00  0.00    +0.255 HD
ATOM     36 HH22 ARG A   8       7.964  32.561   2.614  0.00  0.00    +0.255 HD
ATOM     37  NH1 ARG A   8       9.334  35.469   2.144  0.00  0.00    -0.292 N 
ATOM     38 HH11 ARG A   8       8.491  36.068   2.249  0.00  0.00    +0.255 HD
ATOM     39 HH12 ARG A   8      10.250  35.898   1.900  0.00  0.00    +0.255 HD
ATOM     40  HE  ARG A   8      10.163  32.335   2.187  0.00  0.00    +0.259 HD
ENDBRANCH  31  32
ENDBRANCH  30  31
ENDBRANCH  29  30
ENDBRANCH  15  29
ENDBRANCH  13  15
ENDBRANCH  10  11
ENDBRANCH   7  10
ENDBRANCH   5   6
BRANCH   5  41
ATOM     41  CB  ILE A   6      17.404  32.677  10.808  0.00  0.00    +0.027 C 
ATOM     42  CG2 ILE A   6      16.979  34.123  10.603  0.00  0.00    +0.002 C 
BRANCH  41  43
ATOM     43  CG1 ILE A   6      18.196  32.503  12.107  0.00  0.00    +0.002 C 
ATOM     44  CD1 ILE A   6      17.358  32.569  13.361  0.00  0.00    +0.000 C 
ENDBRANCH  41  43
ENDBRANCH   5  41
ENDBRANCH   3   5
BRANCH   1  45
ATOM     45  CA  VAL A   5      16.140  28.056  11.664  0.00  0.00    +0.149 C 
BRANCH  45  47
ATOM     46  C   ASN A   4      17.152  26.831  13.492  0.00  0.00    +0.241 C 
ATOM     47  N   VAL A   5      16.092  27.455  12.996  0.00  0.00    -0.297 N 
ATOM     48  H   VAL A   5      15.220  27.517  13.559  0.00  0.00    +0.150 HD
ATOM     49  O   ASN A   4      18.190  26.660  12.839  0.00  0.00    -0.273 OA
BRANCH  46  50
ATOM     50  CA  ASN A   4      17.009  26.222  14.881  0.00  0.00    +0.158 C 
BRANCH  50  52
ATOM     51  C   THR A   3      16.579  23.913  14.256  0.00  0.00    +0.243 C 
ATOM     52  N   ASN A   4      17.374  24.809  14.825  0.00  0.00    -0.297 N 
ATOM     53  H   ASN A   4      18.276  24.499  15.240  0.00  0.00    +0.150 HD
ATOM     54  O   THR A   3      15.449  24.193  13.840  0.00  0.00    -0.273 OA
BRANCH  51  55
ATOM     55  CA  THR A   3      17.061  22.466  14.338  0.00  0.00    +0.176 C 
BRANCH  55  58
ATOM     56  C   PRO A   2      16.095  20.340  14.947  0.00  0.00    +0.241 C 
ATOM     57  O   PRO A   2      17.170  19.949  15.390  0.00  0.00    -0.273 OA
ATOM     58  N   THR A   3      15.963  21.513  14.337  0.00  0.00    -0.295 N 
ATOM     59  H   THR A   3      15.071  21.750  13.857  0.00  0.00    +0.150 HD
BRANCH  56  63
ATOM     60  C   THR A   1      13.238  20.988  15.840  0.00  0.00    +0.244 C 
ATOM     61  O   THR A   1      13.915  21.175  16.847  0.00  0.00    -0.273 OA
ATOM     62  N   PRO A   2      13.615  20.155  14.865  0.00  0.00    -0.272 N 
ATOM     63  CA  PRO A   2      14.875  19.427  14.997  0.00  0.00    +0.152 C 
ATOM     64  CB  PRO A   2      14.868  18.464  13.804  0.00  0.00    +0.031 C 
ATOM     65  CG  PRO A   2      13.735  18.881  12.933  0.00  0.00    +0.024 C 
ATOM     66  CD  PRO A   2      12.765  19.624  13.789  0.00  0.00    +0.094 C 
BRANCH  60  67
ATOM     67  CA  THR A   1      11.925  21.739  15.634  0.00  0.00    +0.172 C 
BRANCH  67  68
ATOM     68  N   THR A   1      11.180  21.791  16.874  0.00  0.00    -0.236 NA
ATOM     69  H   THR A   1      11.155  22.679  17.415  0.00  0.00    +0.142 HD
ENDBRANCH  67  68
BRANCH  67  70
ATOM     70  CB  THR A   1      12.194  23.145  15.046  0.00  0.00    +0.135 C 
ATOM     71  CG2 THR A   1      12.903  24.060  16.040  0.00  0.00    +0.034 C 
BRANCH  70  72
ATOM     72  OG1 THR A   1      12.995  23.019  13.867  0.00  0.00    -0.383 OA
ATOM     73  HG1 THR A   1      13.855  22.586  14.098  0.00  0.00    +0.210 HD
ENDBRANCH  70  72
ENDBRANCH  67  70
ENDBRANCH  60  67
ENDBRANCH  56  63
ENDBRANCH  55  58
BRANCH  55  74
ATOM     74  CB  THR A   3      18.068  22.166  13.206  0.00  0.00    +0.137 C 
ATOM     75  CG2 THR A   3      17.566  22.703  11.867  0.00  0.00    +0.034 C 
BRANCH  74  76
ATOM     76  OG1 THR A   3      19.344  22.744  13.520  0.00  0.00    -0.382 OA
ATOM     77  HG1 THR A   3      19.246  23.724  13.619  0.00  0.00    +0.210 HD
ENDBRANCH  74  76
ENDBRANCH  55  74
ENDBRANCH  51  55
ENDBRANCH  50  52
BRANCH  50  78
ATOM     78  CB  ASN A   4      17.944  26.979  15.819  0.00  0.00    +0.114 C 
BRANCH  78  79
ATOM     79  CG  ASN A   4      17.758  26.599  17.274  0.00  0.00    +0.222 C 
ATOM     80  ND2 ASN A   4      18.788  26.847  18.082  0.00  0.00    -0.329 N 
ATOM     81 HD21 ASN A   4      18.705  26.662  19.102  0.00  0.00    +0.145 HD
ATOM     82 HD22 ASN A   4      19.675  27.226  17.693  0.00  0.00    +0.145 HD
ATOM     83  OD1 ASN A   4      16.685  26.151  17.680  0.00  0.00    -0.275 OA
ENDBRANCH  78  79
ENDBRANCH  50  78
ENDBRANCH  46  50
ENDBRANCH  45  47
BRANCH  45  84
ATOM     84  CB  VAL A   5      15.255  27.292  10.657  0.00  0.00    +0.027 C 
ATOM     85  CG2 VAL A   5      13.799  27.465  10.991  0.00  0.00    +0.002 C 
ATOM     86  CG1 VAL A   5      15.608  25.809  10.629  0.00  0.00    +0.002 C 
ENDBRANCH  45  84
ENDBRANCH   1  45
TORSDOF 32
REMARK  Name = ../refined-set-2016/4cps/4cps_pocket.pdb
REMARK  231 active torsions:
REMARK  status: ('A' for Active; 'I' for Inactive)
REMARK    1  A    between atoms: _1  and  _3
REMARK    2  A    between atoms: _3  and  _4
REMARK    3  A    between atoms: _3  and  _6
REMARK    4  A    between atoms: _6  and  _7
REMARK    5  A    between atoms: _7  and  _8
REMARK    6  A    between atoms: _8  and  _9
REMARK    7  A    between atoms: _18  and  _20
REMARK    8  A    between atoms: _20  and  _21
REMARK    9  A    between atoms: _20  and  _23
REMARK   10  A    between atoms: _23  and  _24
REMARK   11  A    between atoms: _27  and  _29
REMARK   12  A    between atoms: _29  and  _30
REMARK   13  A    between atoms: _29  and  _32
REMARK   14  A    between atoms: _32  and  _33
REMARK   15  A    between atoms: _36  and  _38
REMARK   16  A    between atoms: _38  and  _39
REMARK   17  A    between atoms: _38  and  _41
REMARK   18  A    between atoms: _41  and  _42
REMARK   19  A    between atoms: _45  and  _47
REMARK   20  A    between atoms: _47  and  _48
REMARK   21  A    between atoms: _47  and  _50
REMARK   22  A    between atoms: _50  and  _51
REMARK   23  A    between atoms: _54  and  _56
REMARK   24  A    between atoms: _56  and  _57
REMARK   25  A    between atoms: _59  and  _61
REMARK   26  A    between atoms: _61  and  _62
REMARK   27  A    between atoms: _65  and  _67
REMARK   28  A    between atoms: _67  and  _68
REMARK   29  A    between atoms: _67  and  _70
REMARK   30  A    between atoms: _70  and  _71
REMARK   31  A    between atoms: _74  and  _76
REMARK   32  A    between atoms: _76  and  _77
REMARK   33  A    between atoms: _76  and  _79
REMARK   34  A    between atoms: _79  and  _80
REMARK   35  A    between atoms: _83  and  _85
REMARK   36  A    between atoms: _85  and  _86
REMARK   37  A    between atoms: _85  and  _88
REMARK   38  A    between atoms: _88  and  _89
REMARK   39  A    between atoms: _92  and  _94
REMARK   40  A    between atoms: _94  and  _95
REMARK   41  A    between atoms: _94  and  _97
REMARK   42  A    between atoms: _100  and  _102
REMARK   43  A    between atoms: _102  and  _103
REMARK   44  A    between atoms: _102  and  _105
REMARK   45  A    between atoms: _105  and  _106
REMARK   46  A    between atoms: _106  and  _107
REMARK   47  A    between atoms: _107  and  _108
REMARK   48  A    between atoms: _108  and  _109
REMARK   49  A    between atoms: _113  and  _115
REMARK   50  A    between atoms: _115  and  _116
REMARK   51  A    between atoms: _115  and  _118
REMARK   52  A    between atoms: _118  and  _119
REMARK   53  A    between atoms: _119  and  _120
REMARK   54  A    between atoms: _122  and  _124
REMARK   55  A    between atoms: _124  and  _125
REMARK   56  A    between atoms: _124  and  _127
REMARK   57  A    between atoms: _127  and  _128
REMARK   58  A    between atoms: _131  and  _133
REMARK   59  A    between atoms: _133  and  _134
REMARK   60  A    between atoms: _136  and  _138
REMARK   61  A    between atoms: _138  and  _139
REMARK   62  A    between atoms: _141  and  _143
REMARK   63  A    between atoms: _143  and  _144
REMARK   64  A    between atoms: _143  and  _146
REMARK   65  A    between atoms: _146  and  _147
REMARK   66  A    between atoms: _150  and  _152
REMARK   67  A    between atoms: _152  and  _153
REMARK   68  A    between atoms: _155  and  _157
REMARK   69  A    between atoms: _157  and  _158
REMARK   70  A    between atoms: _160  and  _162
REMARK   71  A    between atoms: _162  and  _163
REMARK   72  A    between atoms: _162  and  _165
REMARK   73  A    between atoms: _165  and  _166
REMARK   74  A    between atoms: _172  and  _174
REMARK   75  A    between atoms: _174  and  _175
REMARK   76  A    between atoms: _174  and  _177
REMARK   77  A    between atoms: _177  and  _178
REMARK   78  A    between atoms: _181  and  _183
REMARK   79  A    between atoms: _183  and  _184
REMARK   80  A    between atoms: _183  and  _186
REMARK   81  A    between atoms: _186  and  _187
REMARK   82  A    between atoms: _190  and  _192
REMARK   83  A    between atoms: _192  and  _193
REMARK   84  A    between atoms: _192  and  _195
REMARK   85  A    between atoms: _195  and  _196
REMARK   86  A    between atoms: _200  and  _201
REMARK   87  A    between atoms: _206  and  _208
REMARK   88  A    between atoms: _208  and  _209
REMARK   89  A    between atoms: _208  and  _211
REMARK   90  A    between atoms: _211  and  _212
REMARK   91  A    between atoms: _215  and  _217
REMARK   92  A    between atoms: _217  and  _218
REMARK   93  A    between atoms: _217  and  _220
REMARK   94  A    between atoms: _220  and  _221
REMARK   95  A    between atoms: _226  and  _228
REMARK   96  A    between atoms: _228  and  _229
REMARK   97  A    between atoms: _228  and  _231
REMARK   98  A    between atoms: _234  and  _236
REMARK   99  A    between atoms: _236  and  _237
REMARK  100  A    between atoms: _236  and  _239
REMARK  101  A    between atoms: _239  and  _240
REMARK  102  A    between atoms: _243  and  _245
REMARK  103  A    between atoms: _245  and  _246
REMARK  104  A    between atoms: _248  and  _250
REMARK  105  A    between atoms: _250  and  _251
REMARK  106  A    between atoms: _250  and  _253
REMARK  107  A    between atoms: _253  and  _254
REMARK  108  A    between atoms: _254  and  _255
REMARK  109  A    between atoms: _255  and  _256
REMARK  110  A    between atoms: _265  and  _267
REMARK  111  A    between atoms: _267  and  _268
REMARK  112  A    between atoms: _267  and  _270
REMARK  113  A    between atoms: _270  and  _271
REMARK  114  A    between atoms: _276  and  _278
REMARK  115  A    between atoms: _278  and  _279
REMARK  116  A    between atoms: _278  and  _281
REMARK  117  A    between atoms: _281  and  _282
REMARK  118  A    between atoms: _282  and  _283
REMARK  119  A    between atoms: _283  and  _284
REMARK  120  A    between atoms: _293  and  _295
REMARK  121  A    between atoms: _295  and  _296
REMARK  122  A    between atoms: _295  and  _298
REMARK  123  A    between atoms: _298  and  _299
REMARK  124  A    between atoms: _302  and  _304
REMARK  125  A    between atoms: _304  and  _305
REMARK  126  A    between atoms: _304  and  _307
REMARK  127  A    between atoms: _307  and  _308
REMARK  128  A    between atoms: _311  and  _313
REMARK  129  A    between atoms: _313  and  _314
REMARK  130  A    between atoms: _313  and  _316
REMARK  131  A    between atoms: _316  and  _317
REMARK  132  A    between atoms: _320  and  _322
REMARK  133  A    between atoms: _322  and  _323
REMARK  134  A    between atoms: _322  and  _325
REMARK  135  A    between atoms: _325  and  _326
REMARK  136  A    between atoms: _329  and  _331
REMARK  137  A    between atoms: _331  and  _332
REMARK  138  A    between atoms: _331  and  _334
REMARK  139  A    between atoms: _334  and  _335
REMARK  140  A    between atoms: _338  and  _340
REMARK  141  A    between atoms: _340  and  _341
REMARK  142  A    between atoms: _343  and  _345
REMARK  143  A    between atoms: _345  and  _346
REMARK  144  A    between atoms: _349  and  _351
REMARK  145  A    between atoms: _351  and  _352
REMARK  146  A    between atoms: _351  and  _354
REMARK  147  A    between atoms: _354  and  _355
REMARK  148  A    between atoms: _358  and  _360
REMARK  149  A    between atoms: _360  and  _361
REMARK  150  A    between atoms: _360  and  _363
REMARK  151  A    between atoms: _363  and  _364
REMARK  152  A    between atoms: _367  and  _369
REMARK  153  A    between atoms: _369  and  _370
REMARK  154  A    between atoms: _369  and  _372
REMARK  155  A    between atoms: _372  and  _373
REMARK  156  A    between atoms: _376  and  _378
REMARK  157  A    between atoms: _378  and  _379
REMARK  158  A    between atoms: _378  and  _381
REMARK  159  A    between atoms: _384  and  _386
REMARK  160  A    between atoms: _386  and  _387
REMARK  161  A    between atoms: _386  and  _389
REMARK  162  A    between atoms: _389  and  _390
REMARK  163  A    between atoms: _390  and  _391
REMARK  164  A    between atoms: _391  and  _392
REMARK  165  A    between atoms: _392  and  _393
REMARK  166  A    between atoms: _397  and  _399
REMARK  167  A    between atoms: _399  and  _400
REMARK  168  A    between atoms: _399  and  _402
REMARK  169  A    between atoms: _402  and  _403
REMARK  170  A    between atoms: _403  and  _404
REMARK  171  A    between atoms: _406  and  _408
REMARK  172  A    between atoms: _408  and  _409
REMARK  173  A    between atoms: _408  and  _411
REMARK  174  A    between atoms: _411  and  _412
REMARK  175  A    between atoms: _415  and  _417
REMARK  176  A    between atoms: _417  and  _418
REMARK  177  A    between atoms: _420  and  _422
REMARK  178  A    between atoms: _422  and  _423
REMARK  179  A    between atoms: _425  and  _427
REMARK  180  A    between atoms: _427  and  _428
REMARK  181  A    between atoms: _427  and  _430
REMARK  182  A    between atoms: _430  and  _431
REMARK  183  A    between atoms: _434  and  _436
REMARK  184  A    between atoms: _436  and  _437
REMARK  185  A    between atoms: _439  and  _441
REMARK  186  A    between atoms: _441  and  _442
REMARK  187  A    between atoms: _444  and  _446
REMARK  188  A    between atoms: _446  and  _447
REMARK  189  A    between atoms: _446  and  _449
REMARK  190  A    between atoms: _449  and  _450
REMARK  191  A    between atoms: _456  and  _458
REMARK  192  A    between atoms: _458  and  _459
REMARK  193  A    between atoms: _458  and  _461
REMARK  194  A    between atoms: _461  and  _462
REMARK  195  A    between atoms: _465  and  _467
REMARK  196  A    between atoms: _467  and  _468
REMARK  197  A    between atoms: _467  and  _470
REMARK  198  A    between atoms: _473  and  _475
REMARK  199  A    between atoms: _475  and  _476
REMARK  200  A    between atoms: _475  and  _478
REMARK  201  A    between atoms: _478  and  _479
REMARK  202  A    between atoms: _482  and  _484
REMARK  203  A    between atoms: _484  and  _485
REMARK  204  A    between atoms: _484  and  _487
REMARK  205  A    between atoms: _485  and  _486
REMARK  206  A    between atoms: _485  and  _491
REMARK  207  A    between atoms: _487  and  _488
REMARK  208  A    between atoms: _492  and  _493
REMARK  209  A    between atoms: _498  and  _500
REMARK  210  A    between atoms: _500  and  _501
REMARK  211  A    between atoms: _500  and  _503
REMARK  212  A    between atoms: _503  and  _504
REMARK  213  A    between atoms: _507  and  _509
REMARK  214  A    between atoms: _509  and  _510
REMARK  215  A    between atoms: _509  and  _512
REMARK  216  A    between atoms: _512  and  _513
REMARK  217  A    between atoms: _518  and  _520
REMARK  218  A    between atoms: _520  and  _521
REMARK  219  A    between atoms: _520  and  _523
REMARK  220  A    between atoms: _526  and  _528
REMARK  221  A    between atoms: _528  and  _529
REMARK  222  A    between atoms: _528  and  _531
REMARK  223  A    between atoms: _531  and  _532
REMARK  224  A    between atoms: _535  and  _537
REMARK  225  A    between atoms: _537  and  _538
REMARK  226  A    between atoms: _540  and  _542
REMARK  227  A    between atoms: _542  and  _543
REMARK  228  A    between atoms: _542  and  _545
REMARK  229  A    between atoms: _545  and  _546
REMARK  230  A    between atoms: _546  and  _547
REMARK  231  A    between atoms: _547  and  _548
REMARK                            x       y       z     vdW  Elec       q    Type
REMARK                         _______ _______ _______ _____ _____    ______ ____
ROOT
ATOM      1  NE  ARG A   1       6.270  29.996   0.717  0.00  0.00    -0.265 N 
ATOM      2  HE  ARG A   1       6.697  30.359   1.593  0.00  0.00    +0.259 HD
ATOM      3  CZ  ARG A   1       5.186  29.236   0.825  0.00  0.00    +0.342 C 
ATOM      4  NH2 ARG A   1       4.693  28.951   2.024  0.00  0.00    -0.292 N 
ATOM      5 HH21 ARG A   1       5.155  29.323   2.878  0.00  0.00    +0.255 HD
ATOM      6 HH22 ARG A   1       3.844  28.356   2.109  0.00  0.00    +0.255 HD
ATOM      7  NH1 ARG A   1       4.581  28.780  -0.264  0.00  0.00    -0.292 N 
ATOM      8 HH11 ARG A   1       3.732  28.185  -0.177  0.00  0.00    +0.255 HD
ATOM      9 HH12 ARG A   1       4.955  29.017  -1.205  0.00  0.00    +0.255 HD
ENDROOT
BRANCH   1  10
ATOM     10  CD  ARG A   1       6.901  30.355  -0.543  0.00  0.00    +0.174 C 
BRANCH  10  11
ATOM     11  CG  ARG A   1       7.783  31.577  -0.363  0.00  0.00    +0.045 C 
BRANCH  11  12
ATOM     12  CB  ARG A   1       8.541  31.919  -1.620  0.00  0.00    +0.029 C 
BRANCH  12  13
ATOM     13  CA  ARG A   1       9.534  33.064  -1.450  0.00  0.00    +0.133 C 
BRANCH  13  14
ATOM     14  N   ARG A   1       8.820  34.326  -1.257  0.00  0.00    -0.239 NA
ATOM     15  H   ARG A   1       7.780  34.331  -1.244  0.00  0.00    +0.142 HD
ENDBRANCH  13  14
BRANCH  13  16
ATOM     16  C   ARG A   1      10.423  33.129  -2.685  0.00  0.00    +0.224 C 
ATOM     17  O   ARG A   1      10.004  33.628  -3.726  0.00  0.00    -0.287 OA
ENDBRANCH  13  16
ENDBRANCH  12  13
ENDBRANCH  11  12
ENDBRANCH  10  11
ENDBRANCH   1  10
TORSDOF 6
REMARK  Name = ../refined-set-2016/4cps/4cps_pocket.pdb
REMARK  231 active torsions:
REMARK  status: ('A' for Active; 'I' for Inactive)
REMARK    1  A    between atoms: _1  and  _3
REMARK    2  A    between atoms: _3  and  _4
REMARK    3  A    between atoms: _3  and  _6
REMARK    4  A    between atoms: _6  and  _7
REMARK    5  A    between atoms: _7  and  _8
REMARK    6  A    between atoms: _8  and  _9
REMARK    7  A    between atoms: _18  and  _20
REMARK    8  A    between atoms: _20  and  _21
REMARK    9  A    between atoms: _20  and  _23
REMARK   10  A    between atoms: _23  and  _24
REMARK   11  A    between atoms: _27  and  _29
REMARK   12  A    between atoms: _29  and  _30
REMARK   13  A    between atoms: _29  and  _32
REMARK   14  A    between atoms: _32  and  _33
REMARK   15  A    between atoms: _36  and  _38
REMARK   16  A    between atoms: _38  and  _39
REMARK   17  A    between atoms: _38  and  _41
REMARK   18  A    between atoms: _41  and  _42
REMARK   19  A    between atoms: _45  and  _47
REMARK   20  A    between atoms: _47  and  _48
REMARK   21  A    between atoms: _47  and  _50
REMARK   22  A    between atoms: _50  and  _51
REMARK   23  A    between atoms: _54  and  _56
REMARK   24  A    between atoms: _56  and  _57
REMARK   25  A    between atoms: _59  and  _61
REMARK   26  A    between atoms: _61  and  _62
REMARK   27  A    between atoms: _65  and  _67
REMARK   28  A    between atoms: _67  and  _68
REMARK   29  A    between atoms: _67  and  _70
REMARK   30  A    between atoms: _70  and  _71
REMARK   31  A    between atoms: _74  and  _76
REMARK   32  A    between atoms: _76  and  _77
REMARK   33  A    between atoms: _76  and  _79
REMARK   34  A    between atoms: _79  and  _80
REMARK   35  A    between atoms: _83  and  _85
REMARK   36  A    between atoms: _85  and  _86
REMARK   37  A    between atoms: _85  and  _88
REMARK   38  A    between atoms: _88  and  _89
REMARK   39  A    between atoms: _92  and  _94
REMARK   40  A    between atoms: _94  and  _95
REMARK   41  A    between atoms: _94  and  _97
REMARK   42  A    between atoms: _100  and  _102
REMARK   43  A    between atoms: _102  and  _103
REMARK   44  A    between atoms: _102  and  _105
REMARK   45  A    between atoms: _105  and  _106
REMARK   46  A    between atoms: _106  and  _107
REMARK   47  A    between atoms: _107  and  _108
REMARK   48  A    between atoms: _108  and  _109
REMARK   49  A    between atoms: _113  and  _115
REMARK   50  A    between atoms: _115  and  _116
REMARK   51  A    between atoms: _115  and  _118
REMARK   52  A    between atoms: _118  and  _119
REMARK   53  A    between atoms: _119  and  _120
REMARK   54  A    between atoms: _122  and  _124
REMARK   55  A    between atoms: _124  and  _125
REMARK   56  A    between atoms: _124  and  _127
REMARK   57  A    between atoms: _127  and  _128
REMARK   58  A    between atoms: _131  and  _133
REMARK   59  A    between atoms: _133  and  _134
REMARK   60  A    between atoms: _136  and  _138
REMARK   61  A    between atoms: _138  and  _139
REMARK   62  A    between atoms: _141  and  _143
REMARK   63  A    between atoms: _143  and  _144
REMARK   64  A    between atoms: _143  and  _146
REMARK   65  A    between atoms: _146  and  _147
REMARK   66  A    between atoms: _150  and  _152
REMARK   67  A    between atoms: _152  and  _153
REMARK   68  A    between atoms: _155  and  _157
REMARK   69  A    between atoms: _157  and  _158
REMARK   70  A    between atoms: _160  and  _162
REMARK   71  A    between atoms: _162  and  _163
REMARK   72  A    between atoms: _162  and  _165
REMARK   73  A    between atoms: _165  and  _166
REMARK   74  A    between atoms: _172  and  _174
REMARK   75  A    between atoms: _174  and  _175
REMARK   76  A    between atoms: _174  and  _177
REMARK   77  A    between atoms: _177  and  _178
REMARK   78  A    between atoms: _181  and  _183
REMARK   79  A    between atoms: _183  and  _184
REMARK   80  A    between atoms: _183  and  _186
REMARK   81  A    between atoms: _186  and  _187
REMARK   82  A    between atoms: _190  and  _192
REMARK   83  A    between atoms: _192  and  _193
REMARK   84  A    between atoms: _192  and  _195
REMARK   85  A    between atoms: _195  and  _196
REMARK   86  A    between atoms: _200  and  _201
REMARK   87  A    between atoms: _206  and  _208
REMARK   88  A    between atoms: _208  and  _209
REMARK   89  A    between atoms: _208  and  _211
REMARK   90  A    between atoms: _211  and  _212
REMARK   91  A    between atoms: _215  and  _217
REMARK   92  A    between atoms: _217  and  _218
REMARK   93  A    between atoms: _217  and  _220
REMARK   94  A    between atoms: _220  and  _221
REMARK   95  A    between atoms: _226  and  _228
REMARK   96  A    between atoms: _228  and  _229
REMARK   97  A    between atoms: _228  and  _231
REMARK   98  A    between atoms: _234  and  _236
REMARK   99  A    between atoms: _236  and  _237
REMARK  100  A    between atoms: _236  and  _239
REMARK  101  A    between atoms: _239  and  _240
REMARK  102  A    between atoms: _243  and  _245
REMARK  103  A    between atoms: _245  and  _246
REMARK  104  A    between atoms: _248  and  _250
REMARK  105  A    between atoms: _250  and  _251
REMARK  106  A    between atoms: _250  and  _253
REMARK  107  A    between atoms: _253  and  _254
REMARK  108  A    between atoms: _254  and  _255
REMARK  109  A    between atoms: _255  and  _256
REMARK  110  A    between atoms: _265  and  _267
REMARK  111  A    between atoms: _267  and  _268
REMARK  112  A    between atoms: _267  and  _270
REMARK  113  A    between atoms: _270  and  _271
REMARK  114  A    between atoms: _276  and  _278
REMARK  115  A    between atoms: _278  and  _279
REMARK  116  A    between atoms: _278  and  _281
REMARK  117  A    between atoms: _281  and  _282
REMARK  118  A    between atoms: _282  and  _283
REMARK  119  A    between atoms: _283  and  _284
REMARK  120  A    between atoms: _293  and  _295
REMARK  121  A    between atoms: _295  and  _296
REMARK  122  A    between atoms: _295  and  _298
REMARK  123  A    between atoms: _298  and  _299
REMARK  124  A    between atoms: _302  and  _304
REMARK  125  A    between atoms: _304  and  _305
REMARK  126  A    between atoms: _304  and  _307
REMARK  127  A    between atoms: _307  and  _308
REMARK  128  A    between atoms: _311  and  _313
REMARK  129  A    between atoms: _313  and  _314
REMARK  130  A    between atoms: _313  and  _316
REMARK  131  A    between atoms: _316  and  _317
REMARK  132  A    between atoms: _320  and  _322
REMARK  133  A    between atoms: _322  and  _323
REMARK  134  A    between atoms: _322  and  _325
REMARK  135  A    between atoms: _325  and  _326
REMARK  136  A    between atoms: _329  and  _331
REMARK  137  A    between atoms: _331  and  _332
REMARK  138  A    between atoms: _331  and  _334
REMARK  139  A    between atoms: _334  and  _335
REMARK  140  A    between atoms: _338  and  _340
REMARK  141  A    between atoms: _340  and  _341
REMARK  142  A    between atoms: _343  and  _345
REMARK  143  A    between atoms: _345  and  _346
REMARK  144  A    between atoms: _349  and  _351
REMARK  145  A    between atoms: _351  and  _352
REMARK  146  A    between atoms: _351  and  _354
REMARK  147  A    between atoms: _354  and  _355
REMARK  148  A    between atoms: _358  and  _360
REMARK  149  A    between atoms: _360  and  _361
REMARK  150  A    between atoms: _360  and  _363
REMARK  151  A    between atoms: _363  and  _364
REMARK  152  A    between atoms: _367  and  _369
REMARK  153  A    between atoms: _369  and  _370
REMARK  154  A    between atoms: _369  and  _372
REMARK  155  A    between atoms: _372  and  _373
REMARK  156  A    between atoms: _376  and  _378
REMARK  157  A    between atoms: _378  and  _379
REMARK  158  A    between atoms: _378  and  _381
REMARK  159  A    between atoms: _384  and  _386
REMARK  160  A    between atoms: _386  and  _387
REMARK  161  A    between atoms: _386  and  _389
REMARK  162  A    between atoms: _389  and  _390
REMARK  163  A    between atoms: _390  and  _391
REMARK  164  A    between atoms: _391  and  _392
REMARK  165  A    between atoms: _392  and  _393
REMARK  166  A    between atoms: _397  and  _399
REMARK  167  A    between atoms: _399  and  _400
REMARK  168  A    between atoms: _399  and  _402
REMARK  169  A    between atoms: _402  and  _403
REMARK  170  A    between atoms: _403  and  _404
REMARK  171  A    between atoms: _406  and  _408
REMARK  172  A    between atoms: _408  and  _409
REMARK  173  A    between atoms: _408  and  _411
REMARK  174  A    between atoms: _411  and  _412
REMARK  175  A    between atoms: _415  and  _417
REMARK  176  A    between atoms: _417  and  _418
REMARK  177  A    between atoms: _420  and  _422
REMARK  178  A    between atoms: _422  and  _423
REMARK  179  A    between atoms: _425  and  _427
REMARK  180  A    between atoms: _427  and  _428
REMARK  181  A    between atoms: _427  and  _430
REMARK  182  A    between atoms: _430  and  _431
REMARK  183  A    between atoms: _434  and  _436
REMARK  184  A    between atoms: _436  and  _437
REMARK  185  A    between atoms: _439  and  _441
REMARK  186  A    between atoms: _441  and  _442
REMARK  187  A    between atoms: _444  and  _446
REMARK  188  A    between atoms: _446  and  _447
REMARK  189  A    between atoms: _446  and  _449
REMARK  190  A    between atoms: _449  and  _450
REMARK  191  A    between atoms: _456  and  _458
REMARK  192  A    between atoms: _458  and  _459
REMARK  193  A    between atoms: _458  and  _461
REMARK  194  A    between atoms: _461  and  _462
REMARK  195  A    between atoms: _465  and  _467
REMARK  196  A    between atoms: _467  and  _468
REMARK  197  A    between atoms: _467  and  _470
REMARK  198  A    between atoms: _473  and  _475
REMARK  199  A    between atoms: _475  and  _476
REMARK  200  A    between atoms: _475  and  _478
REMARK  201  A    between atoms: _478  and  _479
REMARK  202  A    between atoms: _482  and  _484
REMARK  203  A    between atoms: _484  and  _485
REMARK  204  A    between atoms: _484  and  _487
REMARK  205  A    between atoms: _485  and  _486
REMARK  206  A    between atoms: _485  and  _491
REMARK  207  A    between atoms: _487  and  _488
REMARK  208  A    between atoms: _492  and  _493
REMARK  209  A    between atoms: _498  and  _500
REMARK  210  A    between atoms: _500  and  _501
REMARK  211  A    between atoms: _500  and  _503
REMARK  212  A    between atoms: _503  and  _504
REMARK  213  A    between atoms: _507  and  _509
REMARK  214  A    between atoms: _509  and  _510
REMARK  215  A    between atoms: _509  and  _512
REMARK  216  A    between atoms: _512  and  _513
REMARK  217  A    between atoms: _518  and  _520
REMARK  218  A    between atoms: _520  and  _521
REMARK  219  A    between atoms: _520  and  _523
REMARK  220  A    between atoms: _526  and  _528
REMARK  221  A    between atoms: _528  and  _529
REMARK  222  A    between atoms: _528  and  _531
REMARK  223  A    between atoms: _531  and  _532
REMARK  224  A    between atoms: _535  and  _537
REMARK  225  A    between atoms: _537  and  _538
REMARK  226  A    between atoms: _540  and  _542
REMARK  227  A    between atoms: _542  and  _543
REMARK  228  A    between atoms: _542  and  _545
REMARK  229  A    between atoms: _545  and  _546
REMARK  230  A    between atoms: _546  and  _547
REMARK  231  A    between atoms: _547  and  _548
REMARK                            x       y       z     vdW  Elec       q    Type
REMARK                         _______ _______ _______ _____ _____    ______ ____
ROOT
ATOM      1  CA  LEU A   1      10.810  30.666  -6.354  0.00  0.00    +0.133 C 
ENDROOT
BRANCH   1   2
ATOM      2  N   LEU A   1      11.231  31.674  -5.397  0.00  0.00    -0.239 NA
ATOM      3  H   LEU A   1      10.629  32.510  -5.252  0.00  0.00    +0.142 HD
ENDBRANCH   1   2
BRANCH   1   4
ATOM      4  C   LEU A   1      11.393  31.001  -7.706  0.00  0.00    +0.224 C 
ATOM      5  O   LEU A   1      11.392  32.165  -8.130  0.00  0.00    -0.287 OA
ENDBRANCH   1   4
BRANCH   1   6
ATOM      6  CB  LEU A   1       9.285  30.619  -6.440  0.00  0.00    +0.025 C 
BRANCH   6   7
ATOM      7  CG  LEU A   1       8.547  30.197  -5.175  0.00  0.00    +0.002 C 
ATOM      8  CD2 LEU A   1       8.748  28.715  -4.908  0.00  0.00    +0.000 C 
ATOM      9  CD1 LEU A   1       7.065  30.519  -5.268  0.00  0.00    +0.000 C 
ENDBRANCH   6   7
ENDBRANCH   1   6
TORSDOF 4
REMARK  Name = ../refined-set-2016/4cps/4cps_pocket.pdb
REMARK  231 active torsions:
REMARK  status: ('A' for Active; 'I' for Inactive)
REMARK    1  A    between atoms: _1  and  _3
REMARK    2  A    between atoms: _3  and  _4
REMARK    3  A    between atoms: _3  and  _6
REMARK    4  A    between atoms: _6  and  _7
REMARK    5  A    between atoms: _7  and  _8
REMARK    6  A    between atoms: _8  and  _9
REMARK    7  A    between atoms: _18  and  _20
REMARK    8  A    between atoms: _20  and  _21
REMARK    9  A    between atoms: _20  and  _23
REMARK   10  A    between atoms: _23  and  _24
REMARK   11  A    between atoms: _27  and  _29
REMARK   12  A    between atoms: _29  and  _30
REMARK   13  A    between atoms: _29  and  _32
REMARK   14  A    between atoms: _32  and  _33
REMARK   15  A    between atoms: _36  and  _38
REMARK   16  A    between atoms: _38  and  _39
REMARK   17  A    between atoms: _38  and  _41
REMARK   18  A    between atoms: _41  and  _42
REMARK   19  A    between atoms: _45  and  _47
REMARK   20  A    between atoms: _47  and  _48
REMARK   21  A    between atoms: _47  and  _50
REMARK   22  A    between atoms: _50  and  _51
REMARK   23  A    between atoms: _54  and  _56
REMARK   24  A    between atoms: _56  and  _57
REMARK   25  A    between atoms: _59  and  _61
REMARK   26  A    between atoms: _61  and  _62
REMARK   27  A    between atoms: _65  and  _67
REMARK   28  A    between atoms: _67  and  _68
REMARK   29  A    between atoms: _67  and  _70
REMARK   30  A    between atoms: _70  and  _71
REMARK   31  A    between atoms: _74  and  _76
REMARK   32  A    between atoms: _76  and  _77
REMARK   33  A    between atoms: _76  and  _79
REMARK   34  A    between atoms: _79  and  _80
REMARK   35  A    between atoms: _83  and  _85
REMARK   36  A    between atoms: _85  and  _86
REMARK   37  A    between atoms: _85  and  _88
REMARK   38  A    between atoms: _88  and  _89
REMARK   39  A    between atoms: _92  and  _94
REMARK   40  A    between atoms: _94  and  _95
REMARK   41  A    between atoms: _94  and  _97
REMARK   42  A    between atoms: _100  and  _102
REMARK   43  A    between atoms: _102  and  _103
REMARK   44  A    between atoms: _102  and  _105
REMARK   45  A    between atoms: _105  and  _106
REMARK   46  A    between atoms: _106  and  _107
REMARK   47  A    between atoms: _107  and  _108
REMARK   48  A    between atoms: _108  and  _109
REMARK   49  A    between atoms: _113  and  _115
REMARK   50  A    between atoms: _115  and  _116
REMARK   51  A    between atoms: _115  and  _118
REMARK   52  A    between atoms: _118  and  _119
REMARK   53  A    between atoms: _119  and  _120
REMARK   54  A    between atoms: _122  and  _124
REMARK   55  A    between atoms: _124  and  _125
REMARK   56  A    between atoms: _124  and  _127
REMARK   57  A    between atoms: _127  and  _128
REMARK   58  A    between atoms: _131  and  _133
REMARK   59  A    between atoms: _133  and  _134
REMARK   60  A    between atoms: _136  and  _138
REMARK   61  A    between atoms: _138  and  _139
REMARK   62  A    between atoms: _141  and  _143
REMARK   63  A    between atoms: _143  and  _144
REMARK   64  A    between atoms: _143  and  _146
REMARK   65  A    between atoms: _146  and  _147
REMARK   66  A    between atoms: _150  and  _152
REMARK   67  A    between atoms: _152  and  _153
REMARK   68  A    between atoms: _155  and  _157
REMARK   69  A    between atoms: _157  and  _158
REMARK   70  A    between atoms: _160  and  _162
REMARK   71  A    between atoms: _162  and  _163
REMARK   72  A    between atoms: _162  and  _165
REMARK   73  A    between atoms: _165  and  _166
REMARK   74  A    between atoms: _172  and  _174
REMARK   75  A    between atoms: _174  and  _175
REMARK   76  A    between atoms: _174  and  _177
REMARK   77  A    between atoms: _177  and  _178
REMARK   78  A    between atoms: _181  and  _183
REMARK   79  A    between atoms: _183  and  _184
REMARK   80  A    between atoms: _183  and  _186
REMARK   81  A    between atoms: _186  and  _187
REMARK   82  A    between atoms: _190  and  _192
REMARK   83  A    between atoms: _192  and  _193
REMARK   84  A    between atoms: _192  and  _195
REMARK   85  A    between atoms: _195  and  _196
REMARK   86  A    between atoms: _200  and  _201
REMARK   87  A    between atoms: _206  and  _208
REMARK   88  A    between atoms: _208  and  _209
REMARK   89  A    between atoms: _208  and  _211
REMARK   90  A    between atoms: _211  and  _212
REMARK   91  A    between atoms: _215  and  _217
REMARK   92  A    between atoms: _217  and  _218
REMARK   93  A    between atoms: _217  and  _220
REMARK   94  A    between atoms: _220  and  _221
REMARK   95  A    between atoms: _226  and  _228
REMARK   96  A    between atoms: _228  and  _229
REMARK   97  A    between atoms: _228  and  _231
REMARK   98  A    between atoms: _234  and  _236
REMARK   99  A    between atoms: _236  and  _237
REMARK  100  A    between atoms: _236  and  _239
REMARK  101  A    between atoms: _239  and  _240
REMARK  102  A    between atoms: _243  and  _245
REMARK  103  A    between atoms: _245  and  _246
REMARK  104  A    between atoms: _248  and  _250
REMARK  105  A    between atoms: _250  and  _251
REMARK  106  A    between atoms: _250  and  _253
REMARK  107  A    between atoms: _253  and  _254
REMARK  108  A    between atoms: _254  and  _255
REMARK  109  A    between atoms: _255  and  _256
REMARK  110  A    between atoms: _265  and  _267
REMARK  111  A    between atoms: _267  and  _268
REMARK  112  A    between atoms: _267  and  _270
REMARK  113  A    between atoms: _270  and  _271
REMARK  114  A    between atoms: _276  and  _278
REMARK  115  A    between atoms: _278  and  _279
REMARK  116  A    between atoms: _278  and  _281
REMARK  117  A    between atoms: _281  and  _282
REMARK  118  A    between atoms: _282  and  _283
REMARK  119  A    between atoms: _283  and  _284
REMARK  120  A    between atoms: _293  and  _295
REMARK  121  A    between atoms: _295  and  _296
REMARK  122  A    between atoms: _295  and  _298
REMARK  123  A    between atoms: _298  and  _299
REMARK  124  A    between atoms: _302  and  _304
REMARK  125  A    between atoms: _304  and  _305
REMARK  126  A    between atoms: _304  and  _307
REMARK  127  A    between atoms: _307  and  _308
REMARK  128  A    between atoms: _311  and  _313
REMARK  129  A    between atoms: _313  and  _314
REMARK  130  A    between atoms: _313  and  _316
REMARK  131  A    between atoms: _316  and  _317
REMARK  132  A    between atoms: _320  and  _322
REMARK  133  A    between atoms: _322  and  _323
REMARK  134  A    between atoms: _322  and  _325
REMARK  135  A    between atoms: _325  and  _326
REMARK  136  A    between atoms: _329  and  _331
REMARK  137  A    between atoms: _331  and  _332
REMARK  138  A    between atoms: _331  and  _334
REMARK  139  A    between atoms: _334  and  _335
REMARK  140  A    between atoms: _338  and  _340
REMARK  141  A    between atoms: _340  and  _341
REMARK  142  A    between atoms: _343  and  _345
REMARK  143  A    between atoms: _345  and  _346
REMARK  144  A    between atoms: _349  and  _351
REMARK  145  A    between atoms: _351  and  _352
REMARK  146  A    between atoms: _351  and  _354
REMARK  147  A    between atoms: _354  and  _355
REMARK  148  A    between atoms: _358  and  _360
REMARK  149  A    between atoms: _360  and  _361
REMARK  150  A    between atoms: _360  and  _363
REMARK  151  A    between atoms: _363  and  _364
REMARK  152  A    between atoms: _367  and  _369
REMARK  153  A    between atoms: _369  and  _370
REMARK  154  A    between atoms: _369  and  _372
REMARK  155  A    between atoms: _372  and  _373
REMARK  156  A    between atoms: _376  and  _378
REMARK  157  A    between atoms: _378  and  _379
REMARK  158  A    between atoms: _378  and  _381
REMARK  159  A    between atoms: _384  and  _386
REMARK  160  A    between atoms: _386  and  _387
REMARK  161  A    between atoms: _386  and  _389
REMARK  162  A    between atoms: _389  and  _390
REMARK  163  A    between atoms: _390  and  _391
REMARK  164  A    between atoms: _391  and  _392
REMARK  165  A    between atoms: _392  and  _393
REMARK  166  A    between atoms: _397  and  _399
REMARK  167  A    between atoms: _399  and  _400
REMARK  168  A    between atoms: _399  and  _402
REMARK  169  A    between atoms: _402  and  _403
REMARK  170  A    between atoms: _403  and  _404
REMARK  171  A    between atoms: _406  and  _408
REMARK  172  A    between atoms: _408  and  _409
REMARK  173  A    between atoms: _408  and  _411
REMARK  174  A    between atoms: _411  and  _412
REMARK  175  A    between atoms: _415  and  _417
REMARK  176  A    between atoms: _417  and  _418
REMARK  177  A    between atoms: _420  and  _422
REMARK  178  A    between atoms: _422  and  _423
REMARK  179  A    between atoms: _425  and  _427
REMARK  180  A    between atoms: _427  and  _428
REMARK  181  A    between atoms: _427  and  _430
REMARK  182  A    between atoms: _430  and  _431
REMARK  183  A    between atoms: _434  and  _436
REMARK  184  A    between atoms: _436  and  _437
REMARK  185  A    between atoms: _439  and  _441
REMARK  186  A    between atoms: _441  and  _442
REMARK  187  A    between atoms: _444  and  _446
REMARK  188  A    between atoms: _446  and  _447
REMARK  189  A    between atoms: _446  and  _449
REMARK  190  A    between atoms: _449  and  _450
REMARK  191  A    between atoms: _456  and  _458
REMARK  192  A    between atoms: _458  and  _459
REMARK  193  A    between atoms: _458  and  _461
REMARK  194  A    between atoms: _461  and  _462
REMARK  195  A    between atoms: _465  and  _467
REMARK  196  A    between atoms: _467  and  _468
REMARK  197  A    between atoms: _467  and  _470
REMARK  198  A    between atoms: _473  and  _475
REMARK  199  A    between atoms: _475  and  _476
REMARK  200  A    between atoms: _475  and  _478
REMARK  201  A    between atoms: _478  and  _479
REMARK  202  A    between atoms: _482  and  _484
REMARK  203  A    between atoms: _484  and  _485
REMARK  204  A    between atoms: _484  and  _487
REMARK  205  A    between atoms: _485  and  _486
REMARK  206  A    between atoms: _485  and  _491
REMARK  207  A    between atoms: _487  and  _488
REMARK  208  A    between atoms: _492  and  _493
REMARK  209  A    between atoms: _498  and  _500
REMARK  210  A    between atoms: _500  and  _501
REMARK  211  A    between atoms: _500  and  _503
REMARK  212  A    between atoms: _503  and  _504
REMARK  213  A    between atoms: _507  and  _509
REMARK  214  A    between atoms: _509  and  _510
REMARK  215  A    between atoms: _509  and  _512
REMARK  216  A    between atoms: _512  and  _513
REMARK  217  A    between atoms: _518  and  _520
REMARK  218  A    between atoms: _520  and  _521
REMARK  219  A    between atoms: _520  and  _523
REMARK  220  A    between atoms: _526  and  _528
REMARK  221  A    between atoms: _528  and  _529
REMARK  222  A    between atoms: _528  and  _531
REMARK  223  A    between atoms: _531  and  _532
REMARK  224  A    between atoms: _535  and  _537
REMARK  225  A    between atoms: _537  and  _538
REMARK  226  A    between atoms: _540  and  _542
REMARK  227  A    between atoms: _542  and  _543
REMARK  228  A    between atoms: _542  and  _545
REMARK  229  A    between atoms: _545  and  _546
REMARK  230  A    between atoms: _546  and  _547
REMARK  231  A    between atoms: _547  and  _548
REMARK                            x       y       z     vdW  Elec       q    Type
REMARK                         _______ _______ _______ _____ _____    ______ ____
ROOT
ATOM      1  C   GLY A   5      18.451  23.899   4.411  0.00  0.00    +0.243 C 
ATOM      2  O   GLY A   5      18.346  23.038   5.291  0.00  0.00    -0.273 OA
ATOM      3  N   ALA A   6      18.537  23.588   3.125  0.00  0.00    -0.297 N 
ATOM      4  H   ALA A   6      18.694  24.347   2.432  0.00  0.00    +0.150 HD
ENDROOT
BRANCH   3   5
ATOM      5  CA  ALA A   6      18.419  22.218   2.656  0.00  0.00    +0.149 C 
ATOM      6  CB  ALA A   6      17.402  22.154   1.530  0.00  0.00    +0.031 C 
BRANCH   5   7
ATOM      7  C   ALA A   6      19.770  21.720   2.166  0.00  0.00    +0.241 C 
ATOM      8  N   ASP A   7      20.243  20.597   2.707  0.00  0.00    -0.297 N 
ATOM      9  H   ASP A   7      19.729  20.139   3.487  0.00  0.00    +0.150 HD
ATOM     10  O   ALA A   6      20.408  22.384   1.342  0.00  0.00    -0.273 OA
BRANCH   8  11
ATOM     11  CA  ASP A   7      21.486  20.008   2.203  0.00  0.00    +0.160 C 
BRANCH  11  12
ATOM     12  C   ASP A   7      21.301  19.564   0.751  0.00  0.00    +0.241 C 
ATOM     13  N   ASP A   8      20.126  19.004   0.473  0.00  0.00    -0.297 N 
ATOM     14  H   ASP A   8      19.351  19.123   1.156  0.00  0.00    +0.150 HD
ATOM     15  O   ASP A   7      22.251  19.590  -0.038  0.00  0.00    -0.273 OA
BRANCH  13  16
ATOM     16  CA  ASP A   8      19.867  18.232  -0.737  0.00  0.00    +0.160 C 
BRANCH  16  17
ATOM     17  C   ASP A   8      18.757  18.909  -1.533  0.00  0.00    +0.241 C 
ATOM     18  O   ASP A   8      18.003  19.718  -0.998  0.00  0.00    -0.273 OA
ATOM     19  N   THR A   9      18.613  18.479  -2.777  0.00  0.00    -0.295 N 
ATOM     20  H   THR A   9      19.290  17.776  -3.137  0.00  0.00    +0.150 HD
BRANCH  19  21
ATOM     21  CA  THR A   9      17.555  18.939  -3.670  0.00  0.00    +0.176 C 
BRANCH  21  22
ATOM     22  C   THR A   9      16.502  17.842  -3.748  0.00  0.00    +0.243 C 
ATOM     23  N   VAL A  10      15.249  18.197  -3.481  0.00  0.00    -0.298 N 
ATOM     24  H   VAL A  10      15.028  19.187  -3.252  0.00  0.00    +0.150 HD
ATOM     25  O   THR A   9      16.827  16.677  -4.001  0.00  0.00    -0.273 OA
BRANCH  23  26
ATOM     26  CA  VAL A  10      14.191  17.209  -3.508  0.00  0.00    +0.137 C 
BRANCH  26  27
ATOM     27  CB  VAL A  10      13.735  16.789  -2.100  0.00  0.00    +0.026 C 
ATOM     28  CG2 VAL A  10      13.193  17.966  -1.334  0.00  0.00    +0.002 C 
ATOM     29  CG1 VAL A  10      12.688  15.694  -2.177  0.00  0.00    +0.002 C 
ENDBRANCH  26  27
BRANCH  26  30
ATOM     30  C   VAL A  10      13.022  17.742  -4.309  0.00  0.00    +0.227 C 
ATOM     31  O   VAL A  10      12.560  18.854  -4.079  0.00  0.00    -0.286 OA
ENDBRANCH  26  30
ENDBRANCH  23  26
ENDBRANCH  21  22
BRANCH  21  32
ATOM     32  CB  THR A   9      18.138  19.228  -5.067  0.00  0.00    +0.137 C 
ATOM     33  CG2 THR A   9      17.055  19.528  -6.095  0.00  0.00    +0.034 C 
BRANCH  32  34
ATOM     34  OG1 THR A   9      19.050  20.327  -4.982  0.00  0.00    -0.382 OA
ATOM     35  HG1 THR A   9      19.783  20.098  -4.358  0.00  0.00    +0.210 HD
ENDBRANCH  32  34
ENDBRANCH  21  32
ENDBRANCH  19  21
ENDBRANCH  16  17
BRANCH  16  36
ATOM     36  CB  ASP A   8      19.426  16.808  -0.371  0.00  0.00    +0.143 C 
BRANCH  36  37
ATOM     37  CG  ASP A   8      20.431  16.089   0.511  0.00  0.00    +0.367 C 
ATOM     38  OD2 ASP A   8      19.993  15.488   1.513  0.00  0.00    -0.246 OA
ATOM     39  OD1 ASP A   8      21.639  16.065   0.174  0.00  0.00    -0.246 OA
ENDBRANCH  36  37
ENDBRANCH  16  36
ENDBRANCH  13  16
ENDBRANCH  11  12
BRANCH  11  40
ATOM     40  CB  ASP A   7      21.896  18.791   3.025  0.00  0.00    +0.143 C 
BRANCH  40  41
ATOM     41  CG  ASP A   7      22.302  19.120   4.448  0.00  0.00    +0.367 C 
ATOM     42  OD2 ASP A   7      22.522  18.129   5.190  0.00  0.00    -0.246 OA
ATOM     43  OD1 ASP A   7      22.562  20.294   4.795  0.00  0.00    -0.246 OA
ENDBRANCH  40  41
ENDBRANCH  11  40
ENDBRANCH   8  11
ENDBRANCH   5   7
ENDBRANCH   3   5
BRANCH   1  44
ATOM     44  CA  GLY A   5      18.474  25.384   4.761  0.00  0.00    +0.176 C 
BRANCH  44  46
ATOM     45  C   THR A   4      19.807  26.549   3.082  0.00  0.00    +0.243 C 
ATOM     46  N   GLY A   5      18.620  26.278   3.614  0.00  0.00    -0.295 N 
ATOM     47  H   GLY A   5      17.770  26.715   3.202  0.00  0.00    +0.150 HD
ATOM     48  O   THR A   4      20.866  26.110   3.537  0.00  0.00    -0.273 OA
BRANCH  45  49
ATOM     49  CA  THR A   4      19.820  27.404   1.823  0.00  0.00    +0.176 C 
BRANCH  49  51
ATOM     50  C   ASP A   3      17.931  26.491   0.613  0.00  0.00    +0.241 C 
ATOM     51  N   THR A   4      18.510  27.527   1.211  0.00  0.00    -0.295 N 
ATOM     52  H   THR A   4      18.016  28.442   1.241  0.00  0.00    +0.150 HD
ATOM     53  O   ASP A   3      18.463  25.377   0.547  0.00  0.00    -0.273 OA
BRANCH  50  54
ATOM     54  CA  ASP A   3      16.563  26.768   0.004  0.00  0.00    +0.160 C 
BRANCH  54  57
ATOM     55  C   LEU A   2      16.115  28.151  -1.971  0.00  0.00    +0.241 C 
ATOM     56  O   LEU A   2      15.712  29.111  -1.315  0.00  0.00    -0.273 OA
ATOM     57  N   ASP A   3      16.670  27.073  -1.423  0.00  0.00    -0.297 N 
ATOM     58  H   ASP A   3      17.202  26.421  -2.034  0.00  0.00    +0.150 HD
BRANCH  55  59
ATOM     59  CA  LEU A   2      15.956  28.135  -3.487  0.00  0.00    +0.149 C 
BRANCH  59  62
ATOM     60  C   LEU A   1      13.852  26.990  -3.801  0.00  0.00    +0.238 C 
ATOM     61  O   LEU A   1      14.383  25.916  -3.526  0.00  0.00    -0.274 OA
ATOM     62  N   LEU A   2      14.541  28.122  -3.857  0.00  0.00    -0.297 N 
ATOM     63  H   LEU A   2      14.075  29.000  -4.164  0.00  0.00    +0.150 HD
BRANCH  60  64
ATOM     64  CA  LEU A   1      12.351  27.069  -4.061  0.00  0.00    +0.145 C 
BRANCH  64  65
ATOM     65  N   LEU A   1      11.990  26.130  -5.099  0.00  0.00    -0.238 NA
ATOM     66  H   LEU A   1      11.871  25.131  -4.837  0.00  0.00    +0.142 HD
ENDBRANCH  64  65
BRANCH  64  67
ATOM     67  CB  LEU A   1      11.585  26.680  -2.801  0.00  0.00    +0.026 C 
BRANCH  67  68
ATOM     68  CG  LEU A   1      11.669  27.562  -1.571  0.00  0.00    +0.002 C 
ATOM     69  CD2 LEU A   1      10.923  26.849  -0.455  0.00  0.00    +0.000 C 
ATOM     70  CD1 LEU A   1      11.069  28.932  -1.842  0.00  0.00    +0.000 C 
ENDBRANCH  67  68
ENDBRANCH  64  67
ENDBRANCH  60  64
ENDBRANCH  59  62
BRANCH  59  71
ATOM     71  CB  LEU A   2      16.661  29.338  -4.083  0.00  0.00    +0.029 C 
BRANCH  71  72
ATOM     72  CG  LEU A   2      16.546  29.531  -5.594  0.00  0.00    +0.002 C 
ATOM     73  CD2 LEU A   2      17.370  30.738  -6.007  0.00  0.00    +0.000 C 
ATOM     74  CD1 LEU A   2      17.008  28.293  -6.345  0.00  0.00    +0.000 C 
ENDBRANCH  71  72
ENDBRANCH  59  71
ENDBRANCH  55  59
ENDBRANCH  54  57
BRANCH  54  75
ATOM     75  CB  ASP A   3      15.636  25.569   0.206  0.00  0.00    +0.143 C 
BRANCH  75  76
ATOM     76  CG  ASP A   3      15.301  25.313   1.659  0.00  0.00    +0.367 C 
ATOM     77  OD2 ASP A   3      15.907  25.932   2.556  0.00  0.00    -0.246 OA
ATOM     78  OD1 ASP A   3      14.386  24.500   1.897  0.00  0.00    -0.246 OA
ENDBRANCH  75  76
ENDBRANCH  54  75
ENDBRANCH  50  54
ENDBRANCH  49  51
BRANCH  49  79
ATOM     79  CB  THR A   4      20.403  28.776   2.188  0.00  0.00    +0.137 C 
ATOM     80  CG2 THR A   4      20.650  29.607   0.937  0.00  0.00    +0.034 C 
BRANCH  79  81
ATOM     81  OG1 THR A   4      19.497  29.480   3.045  0.00  0.00    -0.382 OA
ATOM     82  HG1 THR A   4      19.353  28.956   3.872  0.00  0.00    +0.210 HD
ENDBRANCH  79  81
ENDBRANCH  49  79
ENDBRANCH  45  49
ENDBRANCH  44  46
ENDBRANCH   1  44
TORSDOF 35
REMARK  Name = ../refined-set-2016/4cps/4cps_pocket.pdb
REMARK  231 active torsions:
REMARK  status: ('A' for Active; 'I' for Inactive)
REMARK    1  A    between atoms: _1  and  _3
REMARK    2  A    between atoms: _3  and  _4
REMARK    3  A    between atoms: _3  and  _6
REMARK    4  A    between atoms: _6  and  _7
REMARK    5  A    between atoms: _7  and  _8
REMARK    6  A    between atoms: _8  and  _9
REMARK    7  A    between atoms: _18  and  _20
REMARK    8  A    between atoms: _20  and  _21
REMARK    9  A    between atoms: _20  and  _23
REMARK   10  A    between atoms: _23  and  _24
REMARK   11  A    between atoms: _27  and  _29
REMARK   12  A    between atoms: _29  and  _30
REMARK   13  A    between atoms: _29  and  _32
REMARK   14  A    between atoms: _32  and  _33
REMARK   15  A    between atoms: _36  and  _38
REMARK   16  A    between atoms: _38  and  _39
REMARK   17  A    between atoms: _38  and  _41
REMARK   18  A    between atoms: _41  and  _42
REMARK   19  A    between atoms: _45  and  _47
REMARK   20  A    between atoms: _47  and  _48
REMARK   21  A    between atoms: _47  and  _50
REMARK   22  A    between atoms: _50  and  _51
REMARK   23  A    between atoms: _54  and  _56
REMARK   24  A    between atoms: _56  and  _57
REMARK   25  A    between atoms: _59  and  _61
REMARK   26  A    between atoms: _61  and  _62
REMARK   27  A    between atoms: _65  and  _67
REMARK   28  A    between atoms: _67  and  _68
REMARK   29  A    between atoms: _67  and  _70
REMARK   30  A    between atoms: _70  and  _71
REMARK   31  A    between atoms: _74  and  _76
REMARK   32  A    between atoms: _76  and  _77
REMARK   33  A    between atoms: _76  and  _79
REMARK   34  A    between atoms: _79  and  _80
REMARK   35  A    between atoms: _83  and  _85
REMARK   36  A    between atoms: _85  and  _86
REMARK   37  A    between atoms: _85  and  _88
REMARK   38  A    between atoms: _88  and  _89
REMARK   39  A    between atoms: _92  and  _94
REMARK   40  A    between atoms: _94  and  _95
REMARK   41  A    between atoms: _94  and  _97
REMARK   42  A    between atoms: _100  and  _102
REMARK   43  A    between atoms: _102  and  _103
REMARK   44  A    between atoms: _102  and  _105
REMARK   45  A    between atoms: _105  and  _106
REMARK   46  A    between atoms: _106  and  _107
REMARK   47  A    between atoms: _107  and  _108
REMARK   48  A    between atoms: _108  and  _109
REMARK   49  A    between atoms: _113  and  _115
REMARK   50  A    between atoms: _115  and  _116
REMARK   51  A    between atoms: _115  and  _118
REMARK   52  A    between atoms: _118  and  _119
REMARK   53  A    between atoms: _119  and  _120
REMARK   54  A    between atoms: _122  and  _124
REMARK   55  A    between atoms: _124  and  _125
REMARK   56  A    between atoms: _124  and  _127
REMARK   57  A    between atoms: _127  and  _128
REMARK   58  A    between atoms: _131  and  _133
REMARK   59  A    between atoms: _133  and  _134
REMARK   60  A    between atoms: _136  and  _138
REMARK   61  A    between atoms: _138  and  _139
REMARK   62  A    between atoms: _141  and  _143
REMARK   63  A    between atoms: _143  and  _144
REMARK   64  A    between atoms: _143  and  _146
REMARK   65  A    between atoms: _146  and  _147
REMARK   66  A    between atoms: _150  and  _152
REMARK   67  A    between atoms: _152  and  _153
REMARK   68  A    between atoms: _155  and  _157
REMARK   69  A    between atoms: _157  and  _158
REMARK   70  A    between atoms: _160  and  _162
REMARK   71  A    between atoms: _162  and  _163
REMARK   72  A    between atoms: _162  and  _165
REMARK   73  A    between atoms: _165  and  _166
REMARK   74  A    between atoms: _172  and  _174
REMARK   75  A    between atoms: _174  and  _175
REMARK   76  A    between atoms: _174  and  _177
REMARK   77  A    between atoms: _177  and  _178
REMARK   78  A    between atoms: _181  and  _183
REMARK   79  A    between atoms: _183  and  _184
REMARK   80  A    between atoms: _183  and  _186
REMARK   81  A    between atoms: _186  and  _187
REMARK   82  A    between atoms: _190  and  _192
REMARK   83  A    between atoms: _192  and  _193
REMARK   84  A    between atoms: _192  and  _195
REMARK   85  A    between atoms: _195  and  _196
REMARK   86  A    between atoms: _200  and  _201
REMARK   87  A    between atoms: _206  and  _208
REMARK   88  A    between atoms: _208  and  _209
REMARK   89  A    between atoms: _208  and  _211
REMARK   90  A    between atoms: _211  and  _212
REMARK   91  A    between atoms: _215  and  _217
REMARK   92  A    between atoms: _217  and  _218
REMARK   93  A    between atoms: _217  and  _220
REMARK   94  A    between atoms: _220  and  _221
REMARK   95  A    between atoms: _226  and  _228
REMARK   96  A    between atoms: _228  and  _229
REMARK   97  A    between atoms: _228  and  _231
REMARK   98  A    between atoms: _234  and  _236
REMARK   99  A    between atoms: _236  and  _237
REMARK  100  A    between atoms: _236  and  _239
REMARK  101  A    between atoms: _239  and  _240
REMARK  102  A    between atoms: _243  and  _245
REMARK  103  A    between atoms: _245  and  _246
REMARK  104  A    between atoms: _248  and  _250
REMARK  105  A    between atoms: _250  and  _251
REMARK  106  A    between atoms: _250  and  _253
REMARK  107  A    between atoms: _253  and  _254
REMARK  108  A    between atoms: _254  and  _255
REMARK  109  A    between atoms: _255  and  _256
REMARK  110  A    between atoms: _265  and  _267
REMARK  111  A    between atoms: _267  and  _268
REMARK  112  A    between atoms: _267  and  _270
REMARK  113  A    between atoms: _270  and  _271
REMARK  114  A    between atoms: _276  and  _278
REMARK  115  A    between atoms: _278  and  _279
REMARK  116  A    between atoms: _278  and  _281
REMARK  117  A    between atoms: _281  and  _282
REMARK  118  A    between atoms: _282  and  _283
REMARK  119  A    between atoms: _283  and  _284
REMARK  120  A    between atoms: _293  and  _295
REMARK  121  A    between atoms: _295  and  _296
REMARK  122  A    between atoms: _295  and  _298
REMARK  123  A    between atoms: _298  and  _299
REMARK  124  A    between atoms: _302  and  _304
REMARK  125  A    between atoms: _304  and  _305
REMARK  126  A    between atoms: _304  and  _307
REMARK  127  A    between atoms: _307  and  _308
REMARK  128  A    between atoms: _311  and  _313
REMARK  129  A    between atoms: _313  and  _314
REMARK  130  A    between atoms: _313  and  _316
REMARK  131  A    between atoms: _316  and  _317
REMARK  132  A    between atoms: _320  and  _322
REMARK  133  A    between atoms: _322  and  _323
REMARK  134  A    between atoms: _322  and  _325
REMARK  135  A    between atoms: _325  and  _326
REMARK  136  A    between atoms: _329  and  _331
REMARK  137  A    between atoms: _331  and  _332
REMARK  138  A    between atoms: _331  and  _334
REMARK  139  A    between atoms: _334  and  _335
REMARK  140  A    between atoms: _338  and  _340
REMARK  141  A    between atoms: _340  and  _341
REMARK  142  A    between atoms: _343  and  _345
REMARK  143  A    between atoms: _345  and  _346
REMARK  144  A    between atoms: _349  and  _351
REMARK  145  A    between atoms: _351  and  _352
REMARK  146  A    between atoms: _351  and  _354
REMARK  147  A    between atoms: _354  and  _355
REMARK  148  A    between atoms: _358  and  _360
REMARK  149  A    between atoms: _360  and  _361
REMARK  150  A    between atoms: _360  and  _363
REMARK  151  A    between atoms: _363  and  _364
REMARK  152  A    between atoms: _367  and  _369
REMARK  153  A    between atoms: _369  and  _370
REMARK  154  A    between atoms: _369  and  _372
REMARK  155  A    between atoms: _372  and  _373
REMARK  156  A    between atoms: _376  and  _378
REMARK  157  A    between atoms: _378  and  _379
REMARK  158  A    between atoms: _378  and  _381
REMARK  159  A    between atoms: _384  and  _386
REMARK  160  A    between atoms: _386  and  _387
REMARK  161  A    between atoms: _386  and  _389
REMARK  162  A    between atoms: _389  and  _390
REMARK  163  A    between atoms: _390  and  _391
REMARK  164  A    between atoms: _391  and  _392
REMARK  165  A    between atoms: _392  and  _393
REMARK  166  A    between atoms: _397  and  _399
REMARK  167  A    between atoms: _399  and  _400
REMARK  168  A    between atoms: _399  and  _402
REMARK  169  A    between atoms: _402  and  _403
REMARK  170  A    between atoms: _403  and  _404
REMARK  171  A    between atoms: _406  and  _408
REMARK  172  A    between atoms: _408  and  _409
REMARK  173  A    between atoms: _408  and  _411
REMARK  174  A    between atoms: _411  and  _412
REMARK  175  A    between atoms: _415  and  _417
REMARK  176  A    between atoms: _417  and  _418
REMARK  177  A    between atoms: _420  and  _422
REMARK  178  A    between atoms: _422  and  _423
REMARK  179  A    between atoms: _425  and  _427
REMARK  180  A    between atoms: _427  and  _428
REMARK  181  A    between atoms: _427  and  _430
REMARK  182  A    between atoms: _430  and  _431
REMARK  183  A    between atoms: _434  and  _436
REMARK  184  A    between atoms: _436  and  _437
REMARK  185  A    between atoms: _439  and  _441
REMARK  186  A    between atoms: _441  and  _442
REMARK  187  A    between atoms: _444  and  _446
REMARK  188  A    between atoms: _446  and  _447
REMARK  189  A    between atoms: _446  and  _449
REMARK  190  A    between atoms: _449  and  _450
REMARK  191  A    between atoms: _456  and  _458
REMARK  192  A    between atoms: _458  and  _459
REMARK  193  A    between atoms: _458  and  _461
REMARK  194  A    between atoms: _461  and  _462
REMARK  195  A    between atoms: _465  and  _467
REMARK  196  A    between atoms: _467  and  _468
REMARK  197  A    between atoms: _467  and  _470
REMARK  198  A    between atoms: _473  and  _475
REMARK  199  A    between atoms: _475  and  _476
REMARK  200  A    between atoms: _475  and  _478
REMARK  201  A    between atoms: _478  and  _479
REMARK  202  A    between atoms: _482  and  _484
REMARK  203  A    between atoms: _484  and  _485
REMARK  204  A    between atoms: _484  and  _487
REMARK  205  A    between atoms: _485  and  _486
REMARK  206  A    between atoms: _485  and  _491
REMARK  207  A    between atoms: _487  and  _488
REMARK  208  A    between atoms: _492  and  _493
REMARK  209  A    between atoms: _498  and  _500
REMARK  210  A    between atoms: _500  and  _501
REMARK  211  A    between atoms: _500  and  _503
REMARK  212  A    between atoms: _503  and  _504
REMARK  213  A    between atoms: _507  and  _509
REMARK  214  A    between atoms: _509  and  _510
REMARK  215  A    between atoms: _509  and  _512
REMARK  216  A    between atoms: _512  and  _513
REMARK  217  A    between atoms: _518  and  _520
REMARK  218  A    between atoms: _520  and  _521
REMARK  219  A    between atoms: _520  and  _523
REMARK  220  A    between atoms: _526  and  _528
REMARK  221  A    between atoms: _528  and  _529
REMARK  222  A    between atoms: _528  and  _531
REMARK  223  A    between atoms: _531  and  _532
REMARK  224  A    between atoms: _535  and  _537
REMARK  225  A    between atoms: _537  and  _538
REMARK  226  A    between atoms: _540  and  _542
REMARK  227  A    between atoms: _542  and  _543
REMARK  228  A    between atoms: _542  and  _545
REMARK  229  A    between atoms: _545  and  _546
REMARK  230  A    between atoms: _546  and  _547
REMARK  231  A    between atoms: _547  and  _548
REMARK                            x       y       z     vdW  Elec       q    Type
REMARK                         _______ _______ _______ _____ _____    ______ ____
ROOT
ATOM      1  C   GLY A   5      12.071  18.320   9.098  0.00  0.00    +0.243 C 
ATOM      2  O   GLY A   5      12.148  17.576  10.080  0.00  0.00    -0.273 OA
ATOM      3  N   ILE A   6      11.426  19.479   9.118  0.00  0.00    -0.297 N 
ATOM      4  H   ILE A   6      11.342  20.031   8.241  0.00  0.00    +0.150 HD
ENDROOT
BRANCH   3   5
ATOM      5  CA  ILE A   6      10.831  19.994  10.349  0.00  0.00    +0.149 C 
BRANCH   5   6
ATOM      6  C   ILE A   6       9.806  19.034  10.943  0.00  0.00    +0.241 C 
ATOM      7  O   ILE A   6       9.671  18.946  12.163  0.00  0.00    -0.273 OA
ATOM      8  N   GLY A   7       9.160  18.242  10.093  0.00  0.00    -0.295 N 
ATOM      9  H   GLY A   7       9.459  18.208   9.098  0.00  0.00    +0.150 HD
BRANCH   8  10
ATOM     10  CA  GLY A   7       8.041  17.421  10.532  0.00  0.00    +0.176 C 
BRANCH  10  11
ATOM     11  C   GLY A   7       8.416  15.974  10.782  0.00  0.00    +0.243 C 
ATOM     12  O   GLY A   7       7.587  15.184  11.232  0.00  0.00    -0.273 OA
ATOM     13  N   GLY A   8       9.669  15.626  10.500  0.00  0.00    -0.295 N 
ATOM     14  H   GLY A   8      10.338  16.359  10.189  0.00  0.00    +0.150 HD
BRANCH  13  15
ATOM     15  CA  GLY A   8      10.134  14.245  10.614  0.00  0.00    +0.176 C 
BRANCH  15  16
ATOM     16  C   GLY A   8      10.822  13.763   9.348  0.00  0.00    +0.243 C 
ATOM     17  N   PHE A   9      10.779  12.457   9.108  0.00  0.00    -0.297 N 
ATOM     18  H   PHE A   9      10.176  11.851   9.700  0.00  0.00    +0.150 HD
ATOM     19  O   GLY A   8      11.280  14.565   8.545  0.00  0.00    -0.273 OA
BRANCH  17  20
ATOM     20  CA  PHE A   9      11.558  11.856   8.034  0.00  0.00    +0.153 C 
BRANCH  20  21
ATOM     21  C   PHE A   9      10.671  11.357   6.892  0.00  0.00    +0.241 C 
ATOM     22  O   PHE A   9       9.527  10.946   7.099  0.00  0.00    -0.273 OA
ATOM     23  N   ILE A  10      11.200  11.413   5.674  0.00  0.00    -0.298 N 
ATOM     24  H   ILE A  10      12.082  11.944   5.527  0.00  0.00    +0.150 HD
BRANCH  23  25
ATOM     25  CA  ILE A  10      10.573  10.749   4.544  0.00  0.00    +0.137 C 
BRANCH  25  26
ATOM     26  C   ILE A  10      11.610   9.933   3.783  0.00  0.00    +0.227 C 
ATOM     27  O   ILE A  10      12.800  10.254   3.793  0.00  0.00    -0.286 OA
ENDBRANCH  25  26
BRANCH  25  28
ATOM     28  CB  ILE A  10       9.877  11.733   3.582  0.00  0.00    +0.026 C 
ATOM     29  CG2 ILE A  10       8.847  12.569   4.327  0.00  0.00    +0.002 C 
BRANCH  28  30
ATOM     30  CG1 ILE A  10      10.887  12.649   2.892  0.00  0.00    +0.002 C 
ATOM     31  CD1 ILE A  10      10.267  13.518   1.819  0.00  0.00    +0.000 C 
ENDBRANCH  28  30
ENDBRANCH  25  28
ENDBRANCH  23  25
ENDBRANCH  20  21
BRANCH  20  32
ATOM     32  CB  PHE A   9      12.425  10.715   8.578  0.00  0.00    +0.055 C 
BRANCH  32  33
ATOM     33  CG  PHE A   9      13.577  11.183   9.419  0.00  0.00    -0.020 A 
ATOM     34  CD2 PHE A   9      13.403  11.435  10.771  0.00  0.00    -0.004 A 
ATOM     35  CE2 PHE A   9      14.431  11.972  11.528  0.00  0.00    -0.000 A 
ATOM     36  CZ  PHE A   9      15.651  12.244  10.938  0.00  0.00    -0.000 A 
ATOM     37  CE1 PHE A   9      15.824  12.030   9.585  0.00  0.00    -0.000 A 
ATOM     38  CD1 PHE A   9      14.773  11.557   8.823  0.00  0.00    -0.004 A 
ENDBRANCH  32  33
ENDBRANCH  20  32
ENDBRANCH  17  20
ENDBRANCH  15  16
ENDBRANCH  13  15
ENDBRANCH  10  11
ENDBRANCH   8  10
ENDBRANCH   5   6
BRANCH   5  39
ATOM     39  CB  ILE A   6      10.161  21.361  10.115  0.00  0.00    +0.027 C 
ATOM     40  CG2 ILE A   6       8.765  21.179   9.537  0.00  0.00    +0.002 C 
BRANCH  39  41
ATOM     41  CG1 ILE A   6      10.117  22.148  11.425  0.00  0.00    +0.002 C 
ATOM     42  CD1 ILE A   6       9.034  23.202  11.461  0.00  0.00    +0.000 C 
ENDBRANCH  39  41
ENDBRANCH   5  39
ENDBRANCH   3   5
BRANCH   1  43
ATOM     43  CA  GLY A   5      12.705  17.936   7.777  0.00  0.00    +0.176 C 
BRANCH  43  45
ATOM     44  C   GLY A   4      14.382  16.199   7.525  0.00  0.00    +0.243 C 
ATOM     45  N   GLY A   5      13.126  16.553   7.771  0.00  0.00    -0.295 N 
ATOM     46  H   GLY A   5      12.423  15.812   7.966  0.00  0.00    +0.150 HD
ATOM     47  O   GLY A   4      15.238  16.991   7.135  0.00  0.00    -0.273 OA
BRANCH  44  48
ATOM     48  CA  GLY A   4      14.698  14.732   7.690  0.00  0.00    +0.176 C 
BRANCH  48  50
ATOM     49  C   ILE A   3      14.884  13.293   5.731  0.00  0.00    +0.241 C 
ATOM     50  N   GLY A   4      15.401  14.218   6.524  0.00  0.00    -0.295 N 
ATOM     51  H   GLY A   4      16.346  14.592   6.305  0.00  0.00    +0.150 HD
ATOM     52  O   ILE A   3      13.749  12.833   5.866  0.00  0.00    -0.273 OA
BRANCH  49  53
ATOM     53  CA  ILE A   3      15.832  12.751   4.669  0.00  0.00    +0.149 C 
BRANCH  53  56
ATOM     54  C   MET A   2      16.373  10.400   4.577  0.00  0.00    +0.241 C 
ATOM     55  O   MET A   2      17.558  10.618   4.828  0.00  0.00    -0.273 OA
ATOM     56  N   ILE A   3      15.503  11.378   4.342  0.00  0.00    -0.297 N 
ATOM     57  H   ILE A   3      14.579  11.156   3.920  0.00  0.00    +0.150 HD
BRANCH  54  58
ATOM     58  CA  MET A   2      15.917   9.004   4.198  0.00  0.00    +0.149 C 
BRANCH  58  60
ATOM     59  C   LYS A   1      16.545   8.234   1.984  0.00  0.00    +0.238 C 
ATOM     60  N   MET A   2      16.866   8.452   3.251  0.00  0.00    -0.297 N 
ATOM     61  H   MET A   2      17.827   8.220   3.576  0.00  0.00    +0.150 HD
ATOM     62  O   LYS A   1      15.393   8.309   1.557  0.00  0.00    -0.274 OA
BRANCH  59  63
ATOM     63  CA  LYS A   1      17.701   7.835   1.084  0.00  0.00    +0.145 C 
BRANCH  63  64
ATOM     64  N   LYS A   1      17.252   6.881   0.079  0.00  0.00    -0.238 NA
ATOM     65  H   LYS A   1      16.289   6.960  -0.307  0.00  0.00    +0.142 HD
ENDBRANCH  63  64
BRANCH  63  66
ATOM     66  CB  LYS A   1      18.319   9.079   0.445  0.00  0.00    +0.026 C 
BRANCH  66  67
ATOM     67  CG  LYS A   1      19.136   9.892   1.441  0.00  0.00    -0.000 C 
BRANCH  67  68
ATOM     68  CD  LYS A   1      19.870  11.068   0.830  0.00  0.00    -0.024 C 
BRANCH  68  69
ATOM     69  CE  LYS A   1      20.832  11.664   1.850  0.00  0.00    -0.086 C 
BRANCH  69  70
ATOM     70  NZ  LYS A   1      21.705  12.718   1.278  0.00  0.00    +0.380 N 
ATOM     71  HZ1 LYS A   1      22.336  13.084   2.019  0.00  0.00    -0.089 HD
ATOM     72  HZ2 LYS A   1      21.116  13.492   0.909  0.00  0.00    -0.089 HD
ATOM     73  HZ3 LYS A   1      22.273  12.315   0.506  0.00  0.00    -0.089 HD
ENDBRANCH  69  70
ENDBRANCH  68  69
ENDBRANCH  67  68
ENDBRANCH  66  67
ENDBRANCH  63  66
ENDBRANCH  59  63
ENDBRANCH  58  60
BRANCH  58  74
ATOM     74  CB  MET A   2      15.846   8.107   5.433  0.00  0.00    +0.041 C 
BRANCH  74  75
ATOM     75  CG  MET A   2      14.797   7.011   5.319  0.00  0.00    +0.060 C 
BRANCH  75  76
ATOM     76  SD  MET A   2      13.318   7.450   6.254  0.00  0.00    -0.139 S 
ATOM     77  CE  MET A   2      13.933   7.220   7.923  0.00  0.00    +0.069 C 
ENDBRANCH  75  76
ENDBRANCH  74  75
ENDBRANCH  58  74
ENDBRANCH  54  58
ENDBRANCH  53  56
BRANCH  53  78
ATOM     78  CB  ILE A   3      15.810  13.671   3.435  0.00  0.00    +0.027 C 
ATOM     79  CG2 ILE A   3      16.872  13.239   2.434  0.00  0.00    +0.002 C 
BRANCH  78  80
ATOM     80  CG1 ILE A   3      14.422  13.694   2.787  0.00  0.00    +0.002 C 
ATOM     81  CD1 ILE A   3      14.278  14.699   1.663  0.00  0.00    +0.000 C 
ENDBRANCH  78  80
ENDBRANCH  53  78
ENDBRANCH  49  53
ENDBRANCH  48  50
ENDBRANCH  44  48
ENDBRANCH  43  45
ENDBRANCH   1  43
TORSDOF 36
REMARK  Name = ../refined-set-2016/4cps/4cps_pocket.pdb
REMARK  231 active torsions:
REMARK  status: ('A' for Active; 'I' for Inactive)
REMARK    1  A    between atoms: _1  and  _3
REMARK    2  A    between atoms: _3  and  _4
REMARK    3  A    between atoms: _3  and  _6
REMARK    4  A    between atoms: _6  and  _7
REMARK    5  A    between atoms: _7  and  _8
REMARK    6  A    between atoms: _8  and  _9
REMARK    7  A    between atoms: _18  and  _20
REMARK    8  A    between atoms: _20  and  _21
REMARK    9  A    between atoms: _20  and  _23
REMARK   10  A    between atoms: _23  and  _24
REMARK   11  A    between atoms: _27  and  _29
REMARK   12  A    between atoms: _29  and  _30
REMARK   13  A    between atoms: _29  and  _32
REMARK   14  A    between atoms: _32  and  _33
REMARK   15  A    between atoms: _36  and  _38
REMARK   16  A    between atoms: _38  and  _39
REMARK   17  A    between atoms: _38  and  _41
REMARK   18  A    between atoms: _41  and  _42
REMARK   19  A    between atoms: _45  and  _47
REMARK   20  A    between atoms: _47  and  _48
REMARK   21  A    between atoms: _47  and  _50
REMARK   22  A    between atoms: _50  and  _51
REMARK   23  A    between atoms: _54  and  _56
REMARK   24  A    between atoms: _56  and  _57
REMARK   25  A    between atoms: _59  and  _61
REMARK   26  A    between atoms: _61  and  _62
REMARK   27  A    between atoms: _65  and  _67
REMARK   28  A    between atoms: _67  and  _68
REMARK   29  A    between atoms: _67  and  _70
REMARK   30  A    between atoms: _70  and  _71
REMARK   31  A    between atoms: _74  and  _76
REMARK   32  A    between atoms: _76  and  _77
REMARK   33  A    between atoms: _76  and  _79
REMARK   34  A    between atoms: _79  and  _80
REMARK   35  A    between atoms: _83  and  _85
REMARK   36  A    between atoms: _85  and  _86
REMARK   37  A    between atoms: _85  and  _88
REMARK   38  A    between atoms: _88  and  _89
REMARK   39  A    between atoms: _92  and  _94
REMARK   40  A    between atoms: _94  and  _95
REMARK   41  A    between atoms: _94  and  _97
REMARK   42  A    between atoms: _100  and  _102
REMARK   43  A    between atoms: _102  and  _103
REMARK   44  A    between atoms: _102  and  _105
REMARK   45  A    between atoms: _105  and  _106
REMARK   46  A    between atoms: _106  and  _107
REMARK   47  A    between atoms: _107  and  _108
REMARK   48  A    between atoms: _108  and  _109
REMARK   49  A    between atoms: _113  and  _115
REMARK   50  A    between atoms: _115  and  _116
REMARK   51  A    between atoms: _115  and  _118
REMARK   52  A    between atoms: _118  and  _119
REMARK   53  A    between atoms: _119  and  _120
REMARK   54  A    between atoms: _122  and  _124
REMARK   55  A    between atoms: _124  and  _125
REMARK   56  A    between atoms: _124  and  _127
REMARK   57  A    between atoms: _127  and  _128
REMARK   58  A    between atoms: _131  and  _133
REMARK   59  A    between atoms: _133  and  _134
REMARK   60  A    between atoms: _136  and  _138
REMARK   61  A    between atoms: _138  and  _139
REMARK   62  A    between atoms: _141  and  _143
REMARK   63  A    between atoms: _143  and  _144
REMARK   64  A    between atoms: _143  and  _146
REMARK   65  A    between atoms: _146  and  _147
REMARK   66  A    between atoms: _150  and  _152
REMARK   67  A    between atoms: _152  and  _153
REMARK   68  A    between atoms: _155  and  _157
REMARK   69  A    between atoms: _157  and  _158
REMARK   70  A    between atoms: _160  and  _162
REMARK   71  A    between atoms: _162  and  _163
REMARK   72  A    between atoms: _162  and  _165
REMARK   73  A    between atoms: _165  and  _166
REMARK   74  A    between atoms: _172  and  _174
REMARK   75  A    between atoms: _174  and  _175
REMARK   76  A    between atoms: _174  and  _177
REMARK   77  A    between atoms: _177  and  _178
REMARK   78  A    between atoms: _181  and  _183
REMARK   79  A    between atoms: _183  and  _184
REMARK   80  A    between atoms: _183  and  _186
REMARK   81  A    between atoms: _186  and  _187
REMARK   82  A    between atoms: _190  and  _192
REMARK   83  A    between atoms: _192  and  _193
REMARK   84  A    between atoms: _192  and  _195
REMARK   85  A    between atoms: _195  and  _196
REMARK   86  A    between atoms: _200  and  _201
REMARK   87  A    between atoms: _206  and  _208
REMARK   88  A    between atoms: _208  and  _209
REMARK   89  A    between atoms: _208  and  _211
REMARK   90  A    between atoms: _211  and  _212
REMARK   91  A    between atoms: _215  and  _217
REMARK   92  A    between atoms: _217  and  _218
REMARK   93  A    between atoms: _217  and  _220
REMARK   94  A    between atoms: _220  and  _221
REMARK   95  A    between atoms: _226  and  _228
REMARK   96  A    between atoms: _228  and  _229
REMARK   97  A    between atoms: _228  and  _231
REMARK   98  A    between atoms: _234  and  _236
REMARK   99  A    between atoms: _236  and  _237
REMARK  100  A    between atoms: _236  and  _239
REMARK  101  A    between atoms: _239  and  _240
REMARK  102  A    between atoms: _243  and  _245
REMARK  103  A    between atoms: _245  and  _246
REMARK  104  A    between atoms: _248  and  _250
REMARK  105  A    between atoms: _250  and  _251
REMARK  106  A    between atoms: _250  and  _253
REMARK  107  A    between atoms: _253  and  _254
REMARK  108  A    between atoms: _254  and  _255
REMARK  109  A    between atoms: _255  and  _256
REMARK  110  A    between atoms: _265  and  _267
REMARK  111  A    between atoms: _267  and  _268
REMARK  112  A    between atoms: _267  and  _270
REMARK  113  A    between atoms: _270  and  _271
REMARK  114  A    between atoms: _276  and  _278
REMARK  115  A    between atoms: _278  and  _279
REMARK  116  A    between atoms: _278  and  _281
REMARK  117  A    between atoms: _281  and  _282
REMARK  118  A    between atoms: _282  and  _283
REMARK  119  A    between atoms: _283  and  _284
REMARK  120  A    between atoms: _293  and  _295
REMARK  121  A    between atoms: _295  and  _296
REMARK  122  A    between atoms: _295  and  _298
REMARK  123  A    between atoms: _298  and  _299
REMARK  124  A    between atoms: _302  and  _304
REMARK  125  A    between atoms: _304  and  _305
REMARK  126  A    between atoms: _304  and  _307
REMARK  127  A    between atoms: _307  and  _308
REMARK  128  A    between atoms: _311  and  _313
REMARK  129  A    between atoms: _313  and  _314
REMARK  130  A    between atoms: _313  and  _316
REMARK  131  A    between atoms: _316  and  _317
REMARK  132  A    between atoms: _320  and  _322
REMARK  133  A    between atoms: _322  and  _323
REMARK  134  A    between atoms: _322  and  _325
REMARK  135  A    between atoms: _325  and  _326
REMARK  136  A    between atoms: _329  and  _331
REMARK  137  A    between atoms: _331  and  _332
REMARK  138  A    between atoms: _331  and  _334
REMARK  139  A    between atoms: _334  and  _335
REMARK  140  A    between atoms: _338  and  _340
REMARK  141  A    between atoms: _340  and  _341
REMARK  142  A    between atoms: _343  and  _345
REMARK  143  A    between atoms: _345  and  _346
REMARK  144  A    between atoms: _349  and  _351
REMARK  145  A    between atoms: _351  and  _352
REMARK  146  A    between atoms: _351  and  _354
REMARK  147  A    between atoms: _354  and  _355
REMARK  148  A    between atoms: _358  and  _360
REMARK  149  A    between atoms: _360  and  _361
REMARK  150  A    between atoms: _360  and  _363
REMARK  151  A    between atoms: _363  and  _364
REMARK  152  A    between atoms: _367  and  _369
REMARK  153  A    between atoms: _369  and  _370
REMARK  154  A    between atoms: _369  and  _372
REMARK  155  A    between atoms: _372  and  _373
REMARK  156  A    between atoms: _376  and  _378
REMARK  157  A    between atoms: _378  and  _379
REMARK  158  A    between atoms: _378  and  _381
REMARK  159  A    between atoms: _384  and  _386
REMARK  160  A    between atoms: _386  and  _387
REMARK  161  A    between atoms: _386  and  _389
REMARK  162  A    between atoms: _389  and  _390
REMARK  163  A    between atoms: _390  and  _391
REMARK  164  A    between atoms: _391  and  _392
REMARK  165  A    between atoms: _392  and  _393
REMARK  166  A    between atoms: _397  and  _399
REMARK  167  A    between atoms: _399  and  _400
REMARK  168  A    between atoms: _399  and  _402
REMARK  169  A    between atoms: _402  and  _403
REMARK  170  A    between atoms: _403  and  _404
REMARK  171  A    between atoms: _406  and  _408
REMARK  172  A    between atoms: _408  and  _409
REMARK  173  A    between atoms: _408  and  _411
REMARK  174  A    between atoms: _411  and  _412
REMARK  175  A    between atoms: _415  and  _417
REMARK  176  A    between atoms: _417  and  _418
REMARK  177  A    between atoms: _420  and  _422
REMARK  178  A    between atoms: _422  and  _423
REMARK  179  A    between atoms: _425  and  _427
REMARK  180  A    between atoms: _427  and  _428
REMARK  181  A    between atoms: _427  and  _430
REMARK  182  A    between atoms: _430  and  _431
REMARK  183  A    between atoms: _434  and  _436
REMARK  184  A    between atoms: _436  and  _437
REMARK  185  A    between atoms: _439  and  _441
REMARK  186  A    between atoms: _441  and  _442
REMARK  187  A    between atoms: _444  and  _446
REMARK  188  A    between atoms: _446  and  _447
REMARK  189  A    between atoms: _446  and  _449
REMARK  190  A    between atoms: _449  and  _450
REMARK  191  A    between atoms: _456  and  _458
REMARK  192  A    between atoms: _458  and  _459
REMARK  193  A    between atoms: _458  and  _461
REMARK  194  A    between atoms: _461  and  _462
REMARK  195  A    between atoms: _465  and  _467
REMARK  196  A    between atoms: _467  and  _468
REMARK  197  A    between atoms: _467  and  _470
REMARK  198  A    between atoms: _473  and  _475
REMARK  199  A    between atoms: _475  and  _476
REMARK  200  A    between atoms: _475  and  _478
REMARK  201  A    between atoms: _478  and  _479
REMARK  202  A    between atoms: _482  and  _484
REMARK  203  A    between atoms: _484  and  _485
REMARK  204  A    between atoms: _484  and  _487
REMARK  205  A    between atoms: _485  and  _486
REMARK  206  A    between atoms: _485  and  _491
REMARK  207  A    between atoms: _487  and  _488
REMARK  208  A    between atoms: _492  and  _493
REMARK  209  A    between atoms: _498  and  _500
REMARK  210  A    between atoms: _500  and  _501
REMARK  211  A    between atoms: _500  and  _503
REMARK  212  A    between atoms: _503  and  _504
REMARK  213  A    between atoms: _507  and  _509
REMARK  214  A    between atoms: _509  and  _510
REMARK  215  A    between atoms: _509  and  _512
REMARK  216  A    between atoms: _512  and  _513
REMARK  217  A    between atoms: _518  and  _520
REMARK  218  A    between atoms: _520  and  _521
REMARK  219  A    between atoms: _520  and  _523
REMARK  220  A    between atoms: _526  and  _528
REMARK  221  A    between atoms: _528  and  _529
REMARK  222  A    between atoms: _528  and  _531
REMARK  223  A    between atoms: _531  and  _532
REMARK  224  A    between atoms: _535  and  _537
REMARK  225  A    between atoms: _537  and  _538
REMARK  226  A    between atoms: _540  and  _542
REMARK  227  A    between atoms: _542  and  _543
REMARK  228  A    between atoms: _542  and  _545
REMARK  229  A    between atoms: _545  and  _546
REMARK  230  A    between atoms: _546  and  _547
REMARK  231  A    between atoms: _547  and  _548
REMARK                            x       y       z     vdW  Elec       q    Type
REMARK                         _______ _______ _______ _____ _____    ______ ____
ROOT
ATOM      1  CA  VAL A   1      12.999   9.400  -1.234  0.00  0.00    +0.133 C 
ENDROOT
BRANCH   1   2
ATOM      2  CB  VAL A   1      13.605  10.819  -1.269  0.00  0.00    +0.023 C 
ATOM      3  CG2 VAL A   1      12.745  11.795  -0.494  0.00  0.00    +0.002 C 
ATOM      4  CG1 VAL A   1      15.027  10.825  -0.742  0.00  0.00    +0.002 C 
ENDBRANCH   1   2
BRANCH   1   5
ATOM      5  N   VAL A   1      12.971   8.855   0.108  0.00  0.00    -0.239 NA
ATOM      6  H   VAL A   1      13.856   8.522   0.541  0.00  0.00    +0.142 HD
ENDBRANCH   1   5
BRANCH   1   7
ATOM      7  C   VAL A   1      13.806   8.477  -2.140  0.00  0.00    +0.224 C 
ATOM      8  O   VAL A   1      14.612   7.668  -1.661  0.00  0.00    -0.287 OA
ENDBRANCH   1   7
TORSDOF 3
REMARK  Name = ../refined-set-2016/4cps/4cps_pocket.pdb
REMARK  231 active torsions:
REMARK  status: ('A' for Active; 'I' for Inactive)
REMARK    1  A    between atoms: _1  and  _3
REMARK    2  A    between atoms: _3  and  _4
REMARK    3  A    between atoms: _3  and  _6
REMARK    4  A    between atoms: _6  and  _7
REMARK    5  A    between atoms: _7  and  _8
REMARK    6  A    between atoms: _8  and  _9
REMARK    7  A    between atoms: _18  and  _20
REMARK    8  A    between atoms: _20  and  _21
REMARK    9  A    between atoms: _20  and  _23
REMARK   10  A    between atoms: _23  and  _24
REMARK   11  A    between atoms: _27  and  _29
REMARK   12  A    between atoms: _29  and  _30
REMARK   13  A    between atoms: _29  and  _32
REMARK   14  A    between atoms: _32  and  _33
REMARK   15  A    between atoms: _36  and  _38
REMARK   16  A    between atoms: _38  and  _39
REMARK   17  A    between atoms: _38  and  _41
REMARK   18  A    between atoms: _41  and  _42
REMARK   19  A    between atoms: _45  and  _47
REMARK   20  A    between atoms: _47  and  _48
REMARK   21  A    between atoms: _47  and  _50
REMARK   22  A    between atoms: _50  and  _51
REMARK   23  A    between atoms: _54  and  _56
REMARK   24  A    between atoms: _56  and  _57
REMARK   25  A    between atoms: _59  and  _61
REMARK   26  A    between atoms: _61  and  _62
REMARK   27  A    between atoms: _65  and  _67
REMARK   28  A    between atoms: _67  and  _68
REMARK   29  A    between atoms: _67  and  _70
REMARK   30  A    between atoms: _70  and  _71
REMARK   31  A    between atoms: _74  and  _76
REMARK   32  A    between atoms: _76  and  _77
REMARK   33  A    between atoms: _76  and  _79
REMARK   34  A    between atoms: _79  and  _80
REMARK   35  A    between atoms: _83  and  _85
REMARK   36  A    between atoms: _85  and  _86
REMARK   37  A    between atoms: _85  and  _88
REMARK   38  A    between atoms: _88  and  _89
REMARK   39  A    between atoms: _92  and  _94
REMARK   40  A    between atoms: _94  and  _95
REMARK   41  A    between atoms: _94  and  _97
REMARK   42  A    between atoms: _100  and  _102
REMARK   43  A    between atoms: _102  and  _103
REMARK   44  A    between atoms: _102  and  _105
REMARK   45  A    between atoms: _105  and  _106
REMARK   46  A    between atoms: _106  and  _107
REMARK   47  A    between atoms: _107  and  _108
REMARK   48  A    between atoms: _108  and  _109
REMARK   49  A    between atoms: _113  and  _115
REMARK   50  A    between atoms: _115  and  _116
REMARK   51  A    between atoms: _115  and  _118
REMARK   52  A    between atoms: _118  and  _119
REMARK   53  A    between atoms: _119  and  _120
REMARK   54  A    between atoms: _122  and  _124
REMARK   55  A    between atoms: _124  and  _125
REMARK   56  A    between atoms: _124  and  _127
REMARK   57  A    between atoms: _127  and  _128
REMARK   58  A    between atoms: _131  and  _133
REMARK   59  A    between atoms: _133  and  _134
REMARK   60  A    between atoms: _136  and  _138
REMARK   61  A    between atoms: _138  and  _139
REMARK   62  A    between atoms: _141  and  _143
REMARK   63  A    between atoms: _143  and  _144
REMARK   64  A    between atoms: _143  and  _146
REMARK   65  A    between atoms: _146  and  _147
REMARK   66  A    between atoms: _150  and  _152
REMARK   67  A    between atoms: _152  and  _153
REMARK   68  A    between atoms: _155  and  _157
REMARK   69  A    between atoms: _157  and  _158
REMARK   70  A    between atoms: _160  and  _162
REMARK   71  A    between atoms: _162  and  _163
REMARK   72  A    between atoms: _162  and  _165
REMARK   73  A    between atoms: _165  and  _166
REMARK   74  A    between atoms: _172  and  _174
REMARK   75  A    between atoms: _174  and  _175
REMARK   76  A    between atoms: _174  and  _177
REMARK   77  A    between atoms: _177  and  _178
REMARK   78  A    between atoms: _181  and  _183
REMARK   79  A    between atoms: _183  and  _184
REMARK   80  A    between atoms: _183  and  _186
REMARK   81  A    between atoms: _186  and  _187
REMARK   82  A    between atoms: _190  and  _192
REMARK   83  A    between atoms: _192  and  _193
REMARK   84  A    between atoms: _192  and  _195
REMARK   85  A    between atoms: _195  and  _196
REMARK   86  A    between atoms: _200  and  _201
REMARK   87  A    between atoms: _206  and  _208
REMARK   88  A    between atoms: _208  and  _209
REMARK   89  A    between atoms: _208  and  _211
REMARK   90  A    between atoms: _211  and  _212
REMARK   91  A    between atoms: _215  and  _217
REMARK   92  A    between atoms: _217  and  _218
REMARK   93  A    between atoms: _217  and  _220
REMARK   94  A    between atoms: _220  and  _221
REMARK   95  A    between atoms: _226  and  _228
REMARK   96  A    between atoms: _228  and  _229
REMARK   97  A    between atoms: _228  and  _231
REMARK   98  A    between atoms: _234  and  _236
REMARK   99  A    between atoms: _236  and  _237
REMARK  100  A    between atoms: _236  and  _239
REMARK  101  A    between atoms: _239  and  _240
REMARK  102  A    between atoms: _243  and  _245
REMARK  103  A    between atoms: _245  and  _246
REMARK  104  A    between atoms: _248  and  _250
REMARK  105  A    between atoms: _250  and  _251
REMARK  106  A    between atoms: _250  and  _253
REMARK  107  A    between atoms: _253  and  _254
REMARK  108  A    between atoms: _254  and  _255
REMARK  109  A    between atoms: _255  and  _256
REMARK  110  A    between atoms: _265  and  _267
REMARK  111  A    between atoms: _267  and  _268
REMARK  112  A    between atoms: _267  and  _270
REMARK  113  A    between atoms: _270  and  _271
REMARK  114  A    between atoms: _276  and  _278
REMARK  115  A    between atoms: _278  and  _279
REMARK  116  A    between atoms: _278  and  _281
REMARK  117  A    between atoms: _281  and  _282
REMARK  118  A    between atoms: _282  and  _283
REMARK  119  A    between atoms: _283  and  _284
REMARK  120  A    between atoms: _293  and  _295
REMARK  121  A    between atoms: _295  and  _296
REMARK  122  A    between atoms: _295  and  _298
REMARK  123  A    between atoms: _298  and  _299
REMARK  124  A    between atoms: _302  and  _304
REMARK  125  A    between atoms: _304  and  _305
REMARK  126  A    between atoms: _304  and  _307
REMARK  127  A    between atoms: _307  and  _308
REMARK  128  A    between atoms: _311  and  _313
REMARK  129  A    between atoms: _313  and  _314
REMARK  130  A    between atoms: _313  and  _316
REMARK  131  A    between atoms: _316  and  _317
REMARK  132  A    between atoms: _320  and  _322
REMARK  133  A    between atoms: _322  and  _323
REMARK  134  A    between atoms: _322  and  _325
REMARK  135  A    between atoms: _325  and  _326
REMARK  136  A    between atoms: _329  and  _331
REMARK  137  A    between atoms: _331  and  _332
REMARK  138  A    between atoms: _331  and  _334
REMARK  139  A    between atoms: _334  and  _335
REMARK  140  A    between atoms: _338  and  _340
REMARK  141  A    between atoms: _340  and  _341
REMARK  142  A    between atoms: _343  and  _345
REMARK  143  A    between atoms: _345  and  _346
REMARK  144  A    between atoms: _349  and  _351
REMARK  145  A    between atoms: _351  and  _352
REMARK  146  A    between atoms: _351  and  _354
REMARK  147  A    between atoms: _354  and  _355
REMARK  148  A    between atoms: _358  and  _360
REMARK  149  A    between atoms: _360  and  _361
REMARK  150  A    between atoms: _360  and  _363
REMARK  151  A    between atoms: _363  and  _364
REMARK  152  A    between atoms: _367  and  _369
REMARK  153  A    between atoms: _369  and  _370
REMARK  154  A    between atoms: _369  and  _372
REMARK  155  A    between atoms: _372  and  _373
REMARK  156  A    between atoms: _376  and  _378
REMARK  157  A    between atoms: _378  and  _379
REMARK  158  A    between atoms: _378  and  _381
REMARK  159  A    between atoms: _384  and  _386
REMARK  160  A    between atoms: _386  and  _387
REMARK  161  A    between atoms: _386  and  _389
REMARK  162  A    between atoms: _389  and  _390
REMARK  163  A    between atoms: _390  and  _391
REMARK  164  A    between atoms: _391  and  _392
REMARK  165  A    between atoms: _392  and  _393
REMARK  166  A    between atoms: _397  and  _399
REMARK  167  A    between atoms: _399  and  _400
REMARK  168  A    between atoms: _399  and  _402
REMARK  169  A    between atoms: _402  and  _403
REMARK  170  A    between atoms: _403  and  _404
REMARK  171  A    between atoms: _406  and  _408
REMARK  172  A    between atoms: _408  and  _409
REMARK  173  A    between atoms: _408  and  _411
REMARK  174  A    between atoms: _411  and  _412
REMARK  175  A    between atoms: _415  and  _417
REMARK  176  A    between atoms: _417  and  _418
REMARK  177  A    between atoms: _420  and  _422
REMARK  178  A    between atoms: _422  and  _423
REMARK  179  A    between atoms: _425  and  _427
REMARK  180  A    between atoms: _427  and  _428
REMARK  181  A    between atoms: _427  and  _430
REMARK  182  A    between atoms: _430  and  _431
REMARK  183  A    between atoms: _434  and  _436
REMARK  184  A    between atoms: _436  and  _437
REMARK  185  A    between atoms: _439  and  _441
REMARK  186  A    between atoms: _441  and  _442
REMARK  187  A    between atoms: _444  and  _446
REMARK  188  A    between atoms: _446  and  _447
REMARK  189  A    between atoms: _446  and  _449
REMARK  190  A    between atoms: _449  and  _450
REMARK  191  A    between atoms: _456  and  _458
REMARK  192  A    between atoms: _458  and  _459
REMARK  193  A    between atoms: _458  and  _461
REMARK  194  A    between atoms: _461  and  _462
REMARK  195  A    between atoms: _465  and  _467
REMARK  196  A    between atoms: _467  and  _468
REMARK  197  A    between atoms: _467  and  _470
REMARK  198  A    between atoms: _473  and  _475
REMARK  199  A    between atoms: _475  and  _476
REMARK  200  A    between atoms: _475  and  _478
REMARK  201  A    between atoms: _478  and  _479
REMARK  202  A    between atoms: _482  and  _484
REMARK  203  A    between atoms: _484  and  _485
REMARK  204  A    between atoms: _484  and  _487
REMARK  205  A    between atoms: _485  and  _486
REMARK  206  A    between atoms: _485  and  _491
REMARK  207  A    between atoms: _487  and  _488
REMARK  208  A    between atoms: _492  and  _493
REMARK  209  A    between atoms: _498  and  _500
REMARK  210  A    between atoms: _500  and  _501
REMARK  211  A    between atoms: _500  and  _503
REMARK  212  A    between atoms: _503  and  _504
REMARK  213  A    between atoms: _507  and  _509
REMARK  214  A    between atoms: _509  and  _510
REMARK  215  A    between atoms: _509  and  _512
REMARK  216  A    between atoms: _512  and  _513
REMARK  217  A    between atoms: _518  and  _520
REMARK  218  A    between atoms: _520  and  _521
REMARK  219  A    between atoms: _520  and  _523
REMARK  220  A    between atoms: _526  and  _528
REMARK  221  A    between atoms: _528  and  _529
REMARK  222  A    between atoms: _528  and  _531
REMARK  223  A    between atoms: _531  and  _532
REMARK  224  A    between atoms: _535  and  _537
REMARK  225  A    between atoms: _537  and  _538
REMARK  226  A    between atoms: _540  and  _542
REMARK  227  A    between atoms: _542  and  _543
REMARK  228  A    between atoms: _542  and  _545
REMARK  229  A    between atoms: _545  and  _546
REMARK  230  A    between atoms: _546  and  _547
REMARK  231  A    between atoms: _547  and  _548
REMARK                            x       y       z     vdW  Elec       q    Type
REMARK                         _______ _______ _______ _____ _____    ______ ____
ROOT
ATOM      1  CA  LEU A   1      15.957  13.269  -4.738  0.00  0.00    +0.133 C 
ENDROOT
BRANCH   1   2
ATOM      2  N   LEU A   1      16.800  14.182  -5.509  0.00  0.00    -0.239 NA
ATOM      3  H   LEU A   1      16.887  15.168  -5.190  0.00  0.00    +0.142 HD
ENDBRANCH   1   2
BRANCH   1   4
ATOM      4  C   LEU A   1      14.508  13.481  -5.143  0.00  0.00    +0.224 C 
ATOM      5  O   LEU A   1      14.112  14.593  -5.502  0.00  0.00    -0.287 OA
ENDBRANCH   1   4
BRANCH   1   6
ATOM      6  CB  LEU A   1      16.109  13.541  -3.243  0.00  0.00    +0.025 C 
BRANCH   6   7
ATOM      7  CG  LEU A   1      17.529  13.598  -2.678  0.00  0.00    +0.002 C 
ATOM      8  CD2 LEU A   1      17.508  13.798  -1.174  0.00  0.00    +0.000 C 
ATOM      9  CD1 LEU A   1      18.295  12.342  -3.039  0.00  0.00    +0.000 C 
ENDBRANCH   6   7
ENDBRANCH   1   6
TORSDOF 4
REMARK  Name = ../refined-set-2016/4cps/4cps_pocket.pdb
REMARK  231 active torsions:
REMARK  status: ('A' for Active; 'I' for Inactive)
REMARK    1  A    between atoms: _1  and  _3
REMARK    2  A    between atoms: _3  and  _4
REMARK    3  A    between atoms: _3  and  _6
REMARK    4  A    between atoms: _6  and  _7
REMARK    5  A    between atoms: _7  and  _8
REMARK    6  A    between atoms: _8  and  _9
REMARK    7  A    between atoms: _18  and  _20
REMARK    8  A    between atoms: _20  and  _21
REMARK    9  A    between atoms: _20  and  _23
REMARK   10  A    between atoms: _23  and  _24
REMARK   11  A    between atoms: _27  and  _29
REMARK   12  A    between atoms: _29  and  _30
REMARK   13  A    between atoms: _29  and  _32
REMARK   14  A    between atoms: _32  and  _33
REMARK   15  A    between atoms: _36  and  _38
REMARK   16  A    between atoms: _38  and  _39
REMARK   17  A    between atoms: _38  and  _41
REMARK   18  A    between atoms: _41  and  _42
REMARK   19  A    between atoms: _45  and  _47
REMARK   20  A    between atoms: _47  and  _48
REMARK   21  A    between atoms: _47  and  _50
REMARK   22  A    between atoms: _50  and  _51
REMARK   23  A    between atoms: _54  and  _56
REMARK   24  A    between atoms: _56  and  _57
REMARK   25  A    between atoms: _59  and  _61
REMARK   26  A    between atoms: _61  and  _62
REMARK   27  A    between atoms: _65  and  _67
REMARK   28  A    between atoms: _67  and  _68
REMARK   29  A    between atoms: _67  and  _70
REMARK   30  A    between atoms: _70  and  _71
REMARK   31  A    between atoms: _74  and  _76
REMARK   32  A    between atoms: _76  and  _77
REMARK   33  A    between atoms: _76  and  _79
REMARK   34  A    between atoms: _79  and  _80
REMARK   35  A    between atoms: _83  and  _85
REMARK   36  A    between atoms: _85  and  _86
REMARK   37  A    between atoms: _85  and  _88
REMARK   38  A    between atoms: _88  and  _89
REMARK   39  A    between atoms: _92  and  _94
REMARK   40  A    between atoms: _94  and  _95
REMARK   41  A    between atoms: _94  and  _97
REMARK   42  A    between atoms: _100  and  _102
REMARK   43  A    between atoms: _102  and  _103
REMARK   44  A    between atoms: _102  and  _105
REMARK   45  A    between atoms: _105  and  _106
REMARK   46  A    between atoms: _106  and  _107
REMARK   47  A    between atoms: _107  and  _108
REMARK   48  A    between atoms: _108  and  _109
REMARK   49  A    between atoms: _113  and  _115
REMARK   50  A    between atoms: _115  and  _116
REMARK   51  A    between atoms: _115  and  _118
REMARK   52  A    between atoms: _118  and  _119
REMARK   53  A    between atoms: _119  and  _120
REMARK   54  A    between atoms: _122  and  _124
REMARK   55  A    between atoms: _124  and  _125
REMARK   56  A    between atoms: _124  and  _127
REMARK   57  A    between atoms: _127  and  _128
REMARK   58  A    between atoms: _131  and  _133
REMARK   59  A    between atoms: _133  and  _134
REMARK   60  A    between atoms: _136  and  _138
REMARK   61  A    between atoms: _138  and  _139
REMARK   62  A    between atoms: _141  and  _143
REMARK   63  A    between atoms: _143  and  _144
REMARK   64  A    between atoms: _143  and  _146
REMARK   65  A    between atoms: _146  and  _147
REMARK   66  A    between atoms: _150  and  _152
REMARK   67  A    between atoms: _152  and  _153
REMARK   68  A    between atoms: _155  and  _157
REMARK   69  A    between atoms: _157  and  _158
REMARK   70  A    between atoms: _160  and  _162
REMARK   71  A    between atoms: _162  and  _163
REMARK   72  A    between atoms: _162  and  _165
REMARK   73  A    between atoms: _165  and  _166
REMARK   74  A    between atoms: _172  and  _174
REMARK   75  A    between atoms: _174  and  _175
REMARK   76  A    between atoms: _174  and  _177
REMARK   77  A    between atoms: _177  and  _178
REMARK   78  A    between atoms: _181  and  _183
REMARK   79  A    between atoms: _183  and  _184
REMARK   80  A    between atoms: _183  and  _186
REMARK   81  A    between atoms: _186  and  _187
REMARK   82  A    between atoms: _190  and  _192
REMARK   83  A    between atoms: _192  and  _193
REMARK   84  A    between atoms: _192  and  _195
REMARK   85  A    between atoms: _195  and  _196
REMARK   86  A    between atoms: _200  and  _201
REMARK   87  A    between atoms: _206  and  _208
REMARK   88  A    between atoms: _208  and  _209
REMARK   89  A    between atoms: _208  and  _211
REMARK   90  A    between atoms: _211  and  _212
REMARK   91  A    between atoms: _215  and  _217
REMARK   92  A    between atoms: _217  and  _218
REMARK   93  A    between atoms: _217  and  _220
REMARK   94  A    between atoms: _220  and  _221
REMARK   95  A    between atoms: _226  and  _228
REMARK   96  A    between atoms: _228  and  _229
REMARK   97  A    between atoms: _228  and  _231
REMARK   98  A    between atoms: _234  and  _236
REMARK   99  A    between atoms: _236  and  _237
REMARK  100  A    between atoms: _236  and  _239
REMARK  101  A    between atoms: _239  and  _240
REMARK  102  A    between atoms: _243  and  _245
REMARK  103  A    between atoms: _245  and  _246
REMARK  104  A    between atoms: _248  and  _250
REMARK  105  A    between atoms: _250  and  _251
REMARK  106  A    between atoms: _250  and  _253
REMARK  107  A    between atoms: _253  and  _254
REMARK  108  A    between atoms: _254  and  _255
REMARK  109  A    between atoms: _255  and  _256
REMARK  110  A    between atoms: _265  and  _267
REMARK  111  A    between atoms: _267  and  _268
REMARK  112  A    between atoms: _267  and  _270
REMARK  113  A    between atoms: _270  and  _271
REMARK  114  A    between atoms: _276  and  _278
REMARK  115  A    between atoms: _278  and  _279
REMARK  116  A    between atoms: _278  and  _281
REMARK  117  A    between atoms: _281  and  _282
REMARK  118  A    between atoms: _282  and  _283
REMARK  119  A    between atoms: _283  and  _284
REMARK  120  A    between atoms: _293  and  _295
REMARK  121  A    between atoms: _295  and  _296
REMARK  122  A    between atoms: _295  and  _298
REMARK  123  A    between atoms: _298  and  _299
REMARK  124  A    between atoms: _302  and  _304
REMARK  125  A    between atoms: _304  and  _305
REMARK  126  A    between atoms: _304  and  _307
REMARK  127  A    between atoms: _307  and  _308
REMARK  128  A    between atoms: _311  and  _313
REMARK  129  A    between atoms: _313  and  _314
REMARK  130  A    between atoms: _313  and  _316
REMARK  131  A    between atoms: _316  and  _317
REMARK  132  A    between atoms: _320  and  _322
REMARK  133  A    between atoms: _322  and  _323
REMARK  134  A    between atoms: _322  and  _325
REMARK  135  A    between atoms: _325  and  _326
REMARK  136  A    between atoms: _329  and  _331
REMARK  137  A    between atoms: _331  and  _332
REMARK  138  A    between atoms: _331  and  _334
REMARK  139  A    between atoms: _334  and  _335
REMARK  140  A    between atoms: _338  and  _340
REMARK  141  A    between atoms: _340  and  _341
REMARK  142  A    between atoms: _343  and  _345
REMARK  143  A    between atoms: _345  and  _346
REMARK  144  A    between atoms: _349  and  _351
REMARK  145  A    between atoms: _351  and  _352
REMARK  146  A    between atoms: _351  and  _354
REMARK  147  A    between atoms: _354  and  _355
REMARK  148  A    between atoms: _358  and  _360
REMARK  149  A    between atoms: _360  and  _361
REMARK  150  A    between atoms: _360  and  _363
REMARK  151  A    between atoms: _363  and  _364
REMARK  152  A    between atoms: _367  and  _369
REMARK  153  A    between atoms: _369  and  _370
REMARK  154  A    between atoms: _369  and  _372
REMARK  155  A    between atoms: _372  and  _373
REMARK  156  A    between atoms: _376  and  _378
REMARK  157  A    between atoms: _378  and  _379
REMARK  158  A    between atoms: _378  and  _381
REMARK  159  A    between atoms: _384  and  _386
REMARK  160  A    between atoms: _386  and  _387
REMARK  161  A    between atoms: _386  and  _389
REMARK  162  A    between atoms: _389  and  _390
REMARK  163  A    between atoms: _390  and  _391
REMARK  164  A    between atoms: _391  and  _392
REMARK  165  A    between atoms: _392  and  _393
REMARK  166  A    between atoms: _397  and  _399
REMARK  167  A    between atoms: _399  and  _400
REMARK  168  A    between atoms: _399  and  _402
REMARK  169  A    between atoms: _402  and  _403
REMARK  170  A    between atoms: _403  and  _404
REMARK  171  A    between atoms: _406  and  _408
REMARK  172  A    between atoms: _408  and  _409
REMARK  173  A    between atoms: _408  and  _411
REMARK  174  A    between atoms: _411  and  _412
REMARK  175  A    between atoms: _415  and  _417
REMARK  176  A    between atoms: _417  and  _418
REMARK  177  A    between atoms: _420  and  _422
REMARK  178  A    between atoms: _422  and  _423
REMARK  179  A    between atoms: _425  and  _427
REMARK  180  A    between atoms: _427  and  _428
REMARK  181  A    between atoms: _427  and  _430
REMARK  182  A    between atoms: _430  and  _431
REMARK  183  A    between atoms: _434  and  _436
REMARK  184  A    between atoms: _436  and  _437
REMARK  185  A    between atoms: _439  and  _441
REMARK  186  A    between atoms: _441  and  _442
REMARK  187  A    between atoms: _444  and  _446
REMARK  188  A    between atoms: _446  and  _447
REMARK  189  A    between atoms: _446  and  _449
REMARK  190  A    between atoms: _449  and  _450
REMARK  191  A    between atoms: _456  and  _458
REMARK  192  A    between atoms: _458  and  _459
REMARK  193  A    between atoms: _458  and  _461
REMARK  194  A    between atoms: _461  and  _462
REMARK  195  A    between atoms: _465  and  _467
REMARK  196  A    between atoms: _467  and  _468
REMARK  197  A    between atoms: _467  and  _470
REMARK  198  A    between atoms: _473  and  _475
REMARK  199  A    between atoms: _475  and  _476
REMARK  200  A    between atoms: _475  and  _478
REMARK  201  A    between atoms: _478  and  _479
REMARK  202  A    between atoms: _482  and  _484
REMARK  203  A    between atoms: _484  and  _485
REMARK  204  A    between atoms: _484  and  _487
REMARK  205  A    between atoms: _485  and  _486
REMARK  206  A    between atoms: _485  and  _491
REMARK  207  A    between atoms: _487  and  _488
REMARK  208  A    between atoms: _492  and  _493
REMARK  209  A    between atoms: _498  and  _500
REMARK  210  A    between atoms: _500  and  _501
REMARK  211  A    between atoms: _500  and  _503
REMARK  212  A    between atoms: _503  and  _504
REMARK  213  A    between atoms: _507  and  _509
REMARK  214  A    between atoms: _509  and  _510
REMARK  215  A    between atoms: _509  and  _512
REMARK  216  A    between atoms: _512  and  _513
REMARK  217  A    between atoms: _518  and  _520
REMARK  218  A    between atoms: _520  and  _521
REMARK  219  A    between atoms: _520  and  _523
REMARK  220  A    between atoms: _526  and  _528
REMARK  221  A    between atoms: _528  and  _529
REMARK  222  A    between atoms: _528  and  _531
REMARK  223  A    between atoms: _531  and  _532
REMARK  224  A    between atoms: _535  and  _537
REMARK  225  A    between atoms: _537  and  _538
REMARK  226  A    between atoms: _540  and  _542
REMARK  227  A    between atoms: _542  and  _543
REMARK  228  A    between atoms: _542  and  _545
REMARK  229  A    between atoms: _545  and  _546
REMARK  230  A    between atoms: _546  and  _547
REMARK  231  A    between atoms: _547  and  _548
REMARK                            x       y       z     vdW  Elec       q    Type
REMARK                         _______ _______ _______ _____ _____    ______ ____
ROOT
ATOM      1  C   ASN A   2      11.236  22.295  -4.346  0.00  0.00    +0.241 C 
ATOM      2  N   VAL A   3      12.344  21.720  -3.877  0.00  0.00    -0.297 N 
ATOM      3  H   VAL A   3      12.477  20.693  -3.975  0.00  0.00    +0.150 HD
ATOM      4  O   ASN A   2      11.043  23.513  -4.292  0.00  0.00    -0.273 OA
ENDROOT
BRANCH   2   5
ATOM      5  CA  VAL A   3      13.371  22.530  -3.226  0.00  0.00    +0.149 C 
BRANCH   5   6
ATOM      6  C   VAL A   3      14.739  22.287  -3.842  0.00  0.00    +0.241 C 
ATOM      7  O   VAL A   3      15.133  21.134  -4.086  0.00  0.00    -0.273 OA
ATOM      8  N   ILE A   4      15.439  23.386  -4.135  0.00  0.00    -0.297 N 
ATOM      9  H   ILE A   4      14.981  24.315  -4.043  0.00  0.00    +0.150 HD
BRANCH   8  10
ATOM     10  CA  ILE A   4      16.817  23.323  -4.577  0.00  0.00    +0.149 C 
BRANCH  10  11
ATOM     11  C   ILE A   4      17.728  23.586  -3.393  0.00  0.00    +0.241 C 
ATOM     12  O   ILE A   4      17.686  24.666  -2.779  0.00  0.00    -0.273 OA
ATOM     13  N   GLY A   5      18.486  22.568  -3.010  0.00  0.00    -0.295 N 
ATOM     14  H   GLY A   5      18.456  21.686  -3.561  0.00  0.00    +0.150 HD
BRANCH  13  15
ATOM     15  CA  GLY A   5      19.358  22.639  -1.847  0.00  0.00    +0.176 C 
BRANCH  15  16
ATOM     16  C   GLY A   5      20.810  22.923  -2.191  0.00  0.00    +0.243 C 
ATOM     17  N   ARG A   6      21.652  22.921  -1.164  0.00  0.00    -0.298 N 
ATOM     18  H   ARG A   6      21.342  22.542  -0.246  0.00  0.00    +0.150 HD
ATOM     19  O   GLY A   5      21.156  23.200  -3.352  0.00  0.00    -0.273 OA
BRANCH  17  20
ATOM     20  CA  ARG A   6      23.004  23.442  -1.306  0.00  0.00    +0.137 C 
BRANCH  20  21
ATOM     21  C   ARG A   6      23.838  22.662  -2.322  0.00  0.00    +0.227 C 
ATOM     22  O   ARG A   6      24.749  23.213  -2.934  0.00  0.00    -0.286 OA
ENDBRANCH  20  21
BRANCH  20  23
ATOM     23  CB  ARG A   6      23.714  23.473   0.041  0.00  0.00    +0.031 C 
BRANCH  23  24
ATOM     24  CG  ARG A   6      23.151  24.502   0.990  0.00  0.00    +0.045 C 
BRANCH  24  25
ATOM     25  CD  ARG A   6      24.017  24.671   2.228  0.00  0.00    +0.174 C 
BRANCH  25  26
ATOM     26  NE  ARG A   6      24.055  23.466   3.046  0.00  0.00    -0.265 N 
ATOM     27  HE  ARG A   6      23.272  23.308   3.712  0.00  0.00    +0.259 HD
ATOM     28  CZ  ARG A   6      25.024  22.551   3.001  0.00  0.00    +0.342 C 
ATOM     29  NH2 ARG A   6      24.887  21.416   3.654  0.00  0.00    -0.292 N 
ATOM     30 HH21 ARG A   6      24.024  21.234   4.204  0.00  0.00    +0.255 HD
ATOM     31 HH22 ARG A   6      25.642  20.702   3.619  0.00  0.00    +0.255 HD
ATOM     32  NH1 ARG A   6      26.128  22.768   2.299  0.00  0.00    -0.292 N 
ATOM     33 HH11 ARG A   6      26.877  22.047   2.271  0.00  0.00    +0.255 HD
ATOM     34 HH12 ARG A   6      26.245  23.659   1.776  0.00  0.00    +0.255 HD
ENDBRANCH  25  26
ENDBRANCH  24  25
ENDBRANCH  23  24
ENDBRANCH  20  23
ENDBRANCH  17  20
ENDBRANCH  15  16
ENDBRANCH  13  15
ENDBRANCH  10  11
BRANCH  10  35
ATOM     35  CB  ILE A   4      17.091  24.383  -5.654  0.00  0.00    +0.027 C 
ATOM     36  CG2 ILE A   4      18.520  24.279  -6.164  0.00  0.00    +0.002 C 
BRANCH  35  37
ATOM     37  CG1 ILE A   4      16.087  24.244  -6.798  0.00  0.00    +0.002 C 
ATOM     38  CD1 ILE A   4      15.849  25.524  -7.556  0.00  0.00    +0.000 C 
ENDBRANCH  35  37
ENDBRANCH  10  35
ENDBRANCH   8  10
ENDBRANCH   5   6
BRANCH   5  39
ATOM     39  CB  VAL A   3      13.447  22.273  -1.718  0.00  0.00    +0.027 C 
ATOM     40  CG2 VAL A   3      12.148  22.677  -1.038  0.00  0.00    +0.002 C 
ATOM     41  CG1 VAL A   3      13.770  20.835  -1.439  0.00  0.00    +0.002 C 
ENDBRANCH   5  39
ENDBRANCH   2   5
BRANCH   1  42
ATOM     42  CA  ASN A   2      10.227  21.389  -5.040  0.00  0.00    +0.158 C 
BRANCH  42  45
ATOM     43  C   THR A   1       8.675  21.304  -3.175  0.00  0.00    +0.243 C 
ATOM     44  O   THR A   1       9.472  20.682  -2.477  0.00  0.00    -0.273 OA
ATOM     45  N   ASN A   2       8.911  21.613  -4.446  0.00  0.00    -0.297 N 
ATOM     46  H   ASN A   2       8.149  22.020  -5.025  0.00  0.00    +0.150 HD
BRANCH  43  47
ATOM     47  CA  THR A   1       7.345  21.753  -2.602  0.00  0.00    +0.176 C 
BRANCH  47  49
ATOM     48  C   UNK A   0       5.790  20.710  -1.050  0.00  0.00    +0.237 C 
ATOM     49  N   THR A   1       7.042  20.921  -1.441  0.00  0.00    -0.295 N 
ATOM     50  H   THR A   1       7.822  20.485  -0.909  0.00  0.00    +0.150 HD
ATOM     51  O   UNK A   0       4.834  21.280  -1.571  0.00  0.00    -0.274 OA
BRANCH  48  56
ATOM     52  N   UNK A   0       6.620  18.735   0.263  0.00  0.00    -0.241 NA
ATOM     53  C   UNK A   0       7.192  18.699   1.616  0.00  0.00    +0.075 C 
ATOM     54  C   UNK A   0       6.781  20.013   2.196  0.00  0.00    +0.019 C 
ATOM     55  C   UNK A   0       5.598  20.506   1.451  0.00  0.00    +0.027 C 
ATOM     56  C   UNK A   0       5.574  19.748   0.115  0.00  0.00    +0.137 C 
BRANCH  52  57
ATOM     57  C   UNK A   0       6.808  17.822  -0.697  0.00  0.00    +0.234 C 
BRANCH  57  58
ATOM     58  O   UNK A   0       6.105  17.783  -1.711  0.00  0.00    -0.173 OA
ATOM     59  O   UNK A   0       5.151  18.722  -2.457  0.00  0.00    -0.033 OA
ENDBRANCH  57  58
BRANCH  57  60
ATOM     60  C   UNK A   0       7.961  16.845  -0.503  0.00  0.00    +0.142 C 
BRANCH  60  61
ATOM     61  C   UNK A   0       9.246  17.426  -1.139  0.00  0.00    +0.130 C 
ATOM     62  C   UNK A   0       9.126  17.520  -2.653  0.00  0.00    +0.033 C 
BRANCH  61  63
ATOM     63  O   UNK A   0       9.502  18.723  -0.607  0.00  0.00    -0.383 OA
ATOM     64  H   UNK A   0       8.737  19.318  -0.809  0.00  0.00    +0.210 HD
ENDBRANCH  61  63
ENDBRANCH  60  61
BRANCH  60  65
ATOM     65  N   UNK A   0       7.642  15.551  -1.075  0.00  0.00    -0.241 NA
ATOM     66  H   UNK A   0       7.959  15.334  -2.041  0.00  0.00    +0.142 HD
ENDBRANCH  60  65
ENDBRANCH  57  60
ENDBRANCH  52  57
ENDBRANCH  48  56
ENDBRANCH  47  49
BRANCH  47  67
ATOM     67  CB  THR A   1       7.448  23.253  -2.241  0.00  0.00    +0.137 C 
ATOM     68  CG2 THR A   1       6.194  23.731  -1.534  0.00  0.00    +0.034 C 
BRANCH  67  69
ATOM     69  OG1 THR A   1       8.588  23.472  -1.398  0.00  0.00    -0.382 OA
ATOM     70  HG1 THR A   1       9.409  23.192  -1.876  0.00  0.00    +0.210 HD
ENDBRANCH  67  69
ENDBRANCH  47  67
ENDBRANCH  43  47
ENDBRANCH  42  45
BRANCH  42  71
ATOM     71  CB  ASN A   2      10.220  21.727  -6.533  0.00  0.00    +0.114 C 
BRANCH  71  72
ATOM     72  CG  ASN A   2       9.366  20.780  -7.360  0.00  0.00    +0.222 C 
ATOM     73  OD1 ASN A   2       9.222  19.598  -7.048  0.00  0.00    -0.275 OA
ATOM     74  ND2 ASN A   2       8.745  21.323  -8.392  0.00  0.00    -0.329 N 
ATOM     75 HD21 ASN A   2       8.895  22.326  -8.620  0.00  0.00    +0.145 HD
ATOM     76 HD22 ASN A   2       8.106  20.747  -8.976  0.00  0.00    +0.145 HD
ENDBRANCH  71  72
ENDBRANCH  42  71
ENDBRANCH   1  42
TORSDOF 30
REMARK  Name = ../refined-set-2016/4cps/4cps_pocket.pdb
REMARK  231 active torsions:
REMARK  status: ('A' for Active; 'I' for Inactive)
REMARK    1  A    between atoms: _1  and  _3
REMARK    2  A    between atoms: _3  and  _4
REMARK    3  A    between atoms: _3  and  _6
REMARK    4  A    between atoms: _6  and  _7
REMARK    5  A    between atoms: _7  and  _8
REMARK    6  A    between atoms: _8  and  _9
REMARK    7  A    between atoms: _18  and  _20
REMARK    8  A    between atoms: _20  and  _21
REMARK    9  A    between atoms: _20  and  _23
REMARK   10  A    between atoms: _23  and  _24
REMARK   11  A    between atoms: _27  and  _29
REMARK   12  A    between atoms: _29  and  _30
REMARK   13  A    between atoms: _29  and  _32
REMARK   14  A    between atoms: _32  and  _33
REMARK   15  A    between atoms: _36  and  _38
REMARK   16  A    between atoms: _38  and  _39
REMARK   17  A    between atoms: _38  and  _41
REMARK   18  A    between atoms: _41  and  _42
REMARK   19  A    between atoms: _45  and  _47
REMARK   20  A    between atoms: _47  and  _48
REMARK   21  A    between atoms: _47  and  _50
REMARK   22  A    between atoms: _50  and  _51
REMARK   23  A    between atoms: _54  and  _56
REMARK   24  A    between atoms: _56  and  _57
REMARK   25  A    between atoms: _59  and  _61
REMARK   26  A    between atoms: _61  and  _62
REMARK   27  A    between atoms: _65  and  _67
REMARK   28  A    between atoms: _67  and  _68
REMARK   29  A    between atoms: _67  and  _70
REMARK   30  A    between atoms: _70  and  _71
REMARK   31  A    between atoms: _74  and  _76
REMARK   32  A    between atoms: _76  and  _77
REMARK   33  A    between atoms: _76  and  _79
REMARK   34  A    between atoms: _79  and  _80
REMARK   35  A    between atoms: _83  and  _85
REMARK   36  A    between atoms: _85  and  _86
REMARK   37  A    between atoms: _85  and  _88
REMARK   38  A    between atoms: _88  and  _89
REMARK   39  A    between atoms: _92  and  _94
REMARK   40  A    between atoms: _94  and  _95
REMARK   41  A    between atoms: _94  and  _97
REMARK   42  A    between atoms: _100  and  _102
REMARK   43  A    between atoms: _102  and  _103
REMARK   44  A    between atoms: _102  and  _105
REMARK   45  A    between atoms: _105  and  _106
REMARK   46  A    between atoms: _106  and  _107
REMARK   47  A    between atoms: _107  and  _108
REMARK   48  A    between atoms: _108  and  _109
REMARK   49  A    between atoms: _113  and  _115
REMARK   50  A    between atoms: _115  and  _116
REMARK   51  A    between atoms: _115  and  _118
REMARK   52  A    between atoms: _118  and  _119
REMARK   53  A    between atoms: _119  and  _120
REMARK   54  A    between atoms: _122  and  _124
REMARK   55  A    between atoms: _124  and  _125
REMARK   56  A    between atoms: _124  and  _127
REMARK   57  A    between atoms: _127  and  _128
REMARK   58  A    between atoms: _131  and  _133
REMARK   59  A    between atoms: _133  and  _134
REMARK   60  A    between atoms: _136  and  _138
REMARK   61  A    between atoms: _138  and  _139
REMARK   62  A    between atoms: _141  and  _143
REMARK   63  A    between atoms: _143  and  _144
REMARK   64  A    between atoms: _143  and  _146
REMARK   65  A    between atoms: _146  and  _147
REMARK   66  A    between atoms: _150  and  _152
REMARK   67  A    between atoms: _152  and  _153
REMARK   68  A    between atoms: _155  and  _157
REMARK   69  A    between atoms: _157  and  _158
REMARK   70  A    between atoms: _160  and  _162
REMARK   71  A    between atoms: _162  and  _163
REMARK   72  A    between atoms: _162  and  _165
REMARK   73  A    between atoms: _165  and  _166
REMARK   74  A    between atoms: _172  and  _174
REMARK   75  A    between atoms: _174  and  _175
REMARK   76  A    between atoms: _174  and  _177
REMARK   77  A    between atoms: _177  and  _178
REMARK   78  A    between atoms: _181  and  _183
REMARK   79  A    between atoms: _183  and  _184
REMARK   80  A    between atoms: _183  and  _186
REMARK   81  A    between atoms: _186  and  _187
REMARK   82  A    between atoms: _190  and  _192
REMARK   83  A    between atoms: _192  and  _193
REMARK   84  A    between atoms: _192  and  _195
REMARK   85  A    between atoms: _195  and  _196
REMARK   86  A    between atoms: _200  and  _201
REMARK   87  A    between atoms: _206  and  _208
REMARK   88  A    between atoms: _208  and  _209
REMARK   89  A    between atoms: _208  and  _211
REMARK   90  A    between atoms: _211  and  _212
REMARK   91  A    between atoms: _215  and  _217
REMARK   92  A    between atoms: _217  and  _218
REMARK   93  A    between atoms: _217  and  _220
REMARK   94  A    between atoms: _220  and  _221
REMARK   95  A    between atoms: _226  and  _228
REMARK   96  A    between atoms: _228  and  _229
REMARK   97  A    between atoms: _228  and  _231
REMARK   98  A    between atoms: _234  and  _236
REMARK   99  A    between atoms: _236  and  _237
REMARK  100  A    between atoms: _236  and  _239
REMARK  101  A    between atoms: _239  and  _240
REMARK  102  A    between atoms: _243  and  _245
REMARK  103  A    between atoms: _245  and  _246
REMARK  104  A    between atoms: _248  and  _250
REMARK  105  A    between atoms: _250  and  _251
REMARK  106  A    between atoms: _250  and  _253
REMARK  107  A    between atoms: _253  and  _254
REMARK  108  A    between atoms: _254  and  _255
REMARK  109  A    between atoms: _255  and  _256
REMARK  110  A    between atoms: _265  and  _267
REMARK  111  A    between atoms: _267  and  _268
REMARK  112  A    between atoms: _267  and  _270
REMARK  113  A    between atoms: _270  and  _271
REMARK  114  A    between atoms: _276  and  _278
REMARK  115  A    between atoms: _278  and  _279
REMARK  116  A    between atoms: _278  and  _281
REMARK  117  A    between atoms: _281  and  _282
REMARK  118  A    between atoms: _282  and  _283
REMARK  119  A    between atoms: _283  and  _284
REMARK  120  A    between atoms: _293  and  _295
REMARK  121  A    between atoms: _295  and  _296
REMARK  122  A    between atoms: _295  and  _298
REMARK  123  A    between atoms: _298  and  _299
REMARK  124  A    between atoms: _302  and  _304
REMARK  125  A    between atoms: _304  and  _305
REMARK  126  A    between atoms: _304  and  _307
REMARK  127  A    between atoms: _307  and  _308
REMARK  128  A    between atoms: _311  and  _313
REMARK  129  A    between atoms: _313  and  _314
REMARK  130  A    between atoms: _313  and  _316
REMARK  131  A    between atoms: _316  and  _317
REMARK  132  A    between atoms: _320  and  _322
REMARK  133  A    between atoms: _322  and  _323
REMARK  134  A    between atoms: _322  and  _325
REMARK  135  A    between atoms: _325  and  _326
REMARK  136  A    between atoms: _329  and  _331
REMARK  137  A    between atoms: _331  and  _332
REMARK  138  A    between atoms: _331  and  _334
REMARK  139  A    between atoms: _334  and  _335
REMARK  140  A    between atoms: _338  and  _340
REMARK  141  A    between atoms: _340  and  _341
REMARK  142  A    between atoms: _343  and  _345
REMARK  143  A    between atoms: _345  and  _346
REMARK  144  A    between atoms: _349  and  _351
REMARK  145  A    between atoms: _351  and  _352
REMARK  146  A    between atoms: _351  and  _354
REMARK  147  A    between atoms: _354  and  _355
REMARK  148  A    between atoms: _358  and  _360
REMARK  149  A    between atoms: _360  and  _361
REMARK  150  A    between atoms: _360  and  _363
REMARK  151  A    between atoms: _363  and  _364
REMARK  152  A    between atoms: _367  and  _369
REMARK  153  A    between atoms: _369  and  _370
REMARK  154  A    between atoms: _369  and  _372
REMARK  155  A    between atoms: _372  and  _373
REMARK  156  A    between atoms: _376  and  _378
REMARK  157  A    between atoms: _378  and  _379
REMARK  158  A    between atoms: _378  and  _381
REMARK  159  A    between atoms: _384  and  _386
REMARK  160  A    between atoms: _386  and  _387
REMARK  161  A    between atoms: _386  and  _389
REMARK  162  A    between atoms: _389  and  _390
REMARK  163  A    between atoms: _390  and  _391
REMARK  164  A    between atoms: _391  and  _392
REMARK  165  A    between atoms: _392  and  _393
REMARK  166  A    between atoms: _397  and  _399
REMARK  167  A    between atoms: _399  and  _400
REMARK  168  A    between atoms: _399  and  _402
REMARK  169  A    between atoms: _402  and  _403
REMARK  170  A    between atoms: _403  and  _404
REMARK  171  A    between atoms: _406  and  _408
REMARK  172  A    between atoms: _408  and  _409
REMARK  173  A    between atoms: _408  and  _411
REMARK  174  A    between atoms: _411  and  _412
REMARK  175  A    between atoms: _415  and  _417
REMARK  176  A    between atoms: _417  and  _418
REMARK  177  A    between atoms: _420  and  _422
REMARK  178  A    between atoms: _422  and  _423
REMARK  179  A    between atoms: _425  and  _427
REMARK  180  A    between atoms: _427  and  _428
REMARK  181  A    between atoms: _427  and  _430
REMARK  182  A    between atoms: _430  and  _431
REMARK  183  A    between atoms: _434  and  _436
REMARK  184  A    between atoms: _436  and  _437
REMARK  185  A    between atoms: _439  and  _441
REMARK  186  A    between atoms: _441  and  _442
REMARK  187  A    between atoms: _444  and  _446
REMARK  188  A    between atoms: _446  and  _447
REMARK  189  A    between atoms: _446  and  _449
REMARK  190  A    between atoms: _449  and  _450
REMARK  191  A    between atoms: _456  and  _458
REMARK  192  A    between atoms: _458  and  _459
REMARK  193  A    between atoms: _458  and  _461
REMARK  194  A    between atoms: _461  and  _462
REMARK  195  A    between atoms: _465  and  _467
REMARK  196  A    between atoms: _467  and  _468
REMARK  197  A    between atoms: _467  and  _470
REMARK  198  A    between atoms: _473  and  _475
REMARK  199  A    between atoms: _475  and  _476
REMARK  200  A    between atoms: _475  and  _478
REMARK  201  A    between atoms: _478  and  _479
REMARK  202  A    between atoms: _482  and  _484
REMARK  203  A    between atoms: _484  and  _485
REMARK  204  A    between atoms: _484  and  _487
REMARK  205  A    between atoms: _485  and  _486
REMARK  206  A    between atoms: _485  and  _491
REMARK  207  A    between atoms: _487  and  _488
REMARK  208  A    between atoms: _492  and  _493
REMARK  209  A    between atoms: _498  and  _500
REMARK  210  A    between atoms: _500  and  _501
REMARK  211  A    between atoms: _500  and  _503
REMARK  212  A    between atoms: _503  and  _504
REMARK  213  A    between atoms: _507  and  _509
REMARK  214  A    between atoms: _509  and  _510
REMARK  215  A    between atoms: _509  and  _512
REMARK  216  A    between atoms: _512  and  _513
REMARK  217  A    between atoms: _518  and  _520
REMARK  218  A    between atoms: _520  and  _521
REMARK  219  A    between atoms: _520  and  _523
REMARK  220  A    between atoms: _526  and  _528
REMARK  221  A    between atoms: _528  and  _529
REMARK  222  A    between atoms: _528  and  _531
REMARK  223  A    between atoms: _531  and  _532
REMARK  224  A    between atoms: _535  and  _537
REMARK  225  A    between atoms: _537  and  _538
REMARK  226  A    between atoms: _540  and  _542
REMARK  227  A    between atoms: _542  and  _543
REMARK  228  A    between atoms: _542  and  _545
REMARK  229  A    between atoms: _545  and  _546
REMARK  230  A    between atoms: _546  and  _547
REMARK  231  A    between atoms: _547  and  _548
REMARK                            x       y       z     vdW  Elec       q    Type
REMARK                         _______ _______ _______ _____ _____    ______ ____
ROOT
ATOM      1  O   HOH     1      20.687  21.353   9.099  0.00  0.00    +0.000 OA
ENDROOT
TORSDOF 0
REMARK  Name = ../refined-set-2016/4cps/4cps_pocket.pdb
REMARK  231 active torsions:
REMARK  status: ('A' for Active; 'I' for Inactive)
REMARK    1  A    between atoms: _1  and  _3
REMARK    2  A    between atoms: _3  and  _4
REMARK    3  A    between atoms: _3  and  _6
REMARK    4  A    between atoms: _6  and  _7
REMARK    5  A    between atoms: _7  and  _8
REMARK    6  A    between atoms: _8  and  _9
REMARK    7  A    between atoms: _18  and  _20
REMARK    8  A    between atoms: _20  and  _21
REMARK    9  A    between atoms: _20  and  _23
REMARK   10  A    between atoms: _23  and  _24
REMARK   11  A    between atoms: _27  and  _29
REMARK   12  A    between atoms: _29  and  _30
REMARK   13  A    between atoms: _29  and  _32
REMARK   14  A    between atoms: _32  and  _33
REMARK   15  A    between atoms: _36  and  _38
REMARK   16  A    between atoms: _38  and  _39
REMARK   17  A    between atoms: _38  and  _41
REMARK   18  A    between atoms: _41  and  _42
REMARK   19  A    between atoms: _45  and  _47
REMARK   20  A    between atoms: _47  and  _48
REMARK   21  A    between atoms: _47  and  _50
REMARK   22  A    between atoms: _50  and  _51
REMARK   23  A    between atoms: _54  and  _56
REMARK   24  A    between atoms: _56  and  _57
REMARK   25  A    between atoms: _59  and  _61
REMARK   26  A    between atoms: _61  and  _62
REMARK   27  A    between atoms: _65  and  _67
REMARK   28  A    between atoms: _67  and  _68
REMARK   29  A    between atoms: _67  and  _70
REMARK   30  A    between atoms: _70  and  _71
REMARK   31  A    between atoms: _74  and  _76
REMARK   32  A    between atoms: _76  and  _77
REMARK   33  A    between atoms: _76  and  _79
REMARK   34  A    between atoms: _79  and  _80
REMARK   35  A    between atoms: _83  and  _85
REMARK   36  A    between atoms: _85  and  _86
REMARK   37  A    between atoms: _85  and  _88
REMARK   38  A    between atoms: _88  and  _89
REMARK   39  A    between atoms: _92  and  _94
REMARK   40  A    between atoms: _94  and  _95
REMARK   41  A    between atoms: _94  and  _97
REMARK   42  A    between atoms: _100  and  _102
REMARK   43  A    between atoms: _102  and  _103
REMARK   44  A    between atoms: _102  and  _105
REMARK   45  A    between atoms: _105  and  _106
REMARK   46  A    between atoms: _106  and  _107
REMARK   47  A    between atoms: _107  and  _108
REMARK   48  A    between atoms: _108  and  _109
REMARK   49  A    between atoms: _113  and  _115
REMARK   50  A    between atoms: _115  and  _116
REMARK   51  A    between atoms: _115  and  _118
REMARK   52  A    between atoms: _118  and  _119
REMARK   53  A    between atoms: _119  and  _120
REMARK   54  A    between atoms: _122  and  _124
REMARK   55  A    between atoms: _124  and  _125
REMARK   56  A    between atoms: _124  and  _127
REMARK   57  A    between atoms: _127  and  _128
REMARK   58  A    between atoms: _131  and  _133
REMARK   59  A    between atoms: _133  and  _134
REMARK   60  A    between atoms: _136  and  _138
REMARK   61  A    between atoms: _138  and  _139
REMARK   62  A    between atoms: _141  and  _143
REMARK   63  A    between atoms: _143  and  _144
REMARK   64  A    between atoms: _143  and  _146
REMARK   65  A    between atoms: _146  and  _147
REMARK   66  A    between atoms: _150  and  _152
REMARK   67  A    between atoms: _152  and  _153
REMARK   68  A    between atoms: _155  and  _157
REMARK   69  A    between atoms: _157  and  _158
REMARK   70  A    between atoms: _160  and  _162
REMARK   71  A    between atoms: _162  and  _163
REMARK   72  A    between atoms: _162  and  _165
REMARK   73  A    between atoms: _165  and  _166
REMARK   74  A    between atoms: _172  and  _174
REMARK   75  A    between atoms: _174  and  _175
REMARK   76  A    between atoms: _174  and  _177
REMARK   77  A    between atoms: _177  and  _178
REMARK   78  A    between atoms: _181  and  _183
REMARK   79  A    between atoms: _183  and  _184
REMARK   80  A    between atoms: _183  and  _186
REMARK   81  A    between atoms: _186  and  _187
REMARK   82  A    between atoms: _190  and  _192
REMARK   83  A    between atoms: _192  and  _193
REMARK   84  A    between atoms: _192  and  _195
REMARK   85  A    between atoms: _195  and  _196
REMARK   86  A    between atoms: _200  and  _201
REMARK   87  A    between atoms: _206  and  _208
REMARK   88  A    between atoms: _208  and  _209
REMARK   89  A    between atoms: _208  and  _211
REMARK   90  A    between atoms: _211  and  _212
REMARK   91  A    between atoms: _215  and  _217
REMARK   92  A    between atoms: _217  and  _218
REMARK   93  A    between atoms: _217  and  _220
REMARK   94  A    between atoms: _220  and  _221
REMARK   95  A    between atoms: _226  and  _228
REMARK   96  A    between atoms: _228  and  _229
REMARK   97  A    between atoms: _228  and  _231
REMARK   98  A    between atoms: _234  and  _236
REMARK   99  A    between atoms: _236  and  _237
REMARK  100  A    between atoms: _236  and  _239
REMARK  101  A    between atoms: _239  and  _240
REMARK  102  A    between atoms: _243  and  _245
REMARK  103  A    between atoms: _245  and  _246
REMARK  104  A    between atoms: _248  and  _250
REMARK  105  A    between atoms: _250  and  _251
REMARK  106  A    between atoms: _250  and  _253
REMARK  107  A    between atoms: _253  and  _254
REMARK  108  A    between atoms: _254  and  _255
REMARK  109  A    between atoms: _255  and  _256
REMARK  110  A    between atoms: _265  and  _267
REMARK  111  A    between atoms: _267  and  _268
REMARK  112  A    between atoms: _267  and  _270
REMARK  113  A    between atoms: _270  and  _271
REMARK  114  A    between atoms: _276  and  _278
REMARK  115  A    between atoms: _278  and  _279
REMARK  116  A    between atoms: _278  and  _281
REMARK  117  A    between atoms: _281  and  _282
REMARK  118  A    between atoms: _282  and  _283
REMARK  119  A    between atoms: _283  and  _284
REMARK  120  A    between atoms: _293  and  _295
REMARK  121  A    between atoms: _295  and  _296
REMARK  122  A    between atoms: _295  and  _298
REMARK  123  A    between atoms: _298  and  _299
REMARK  124  A    between atoms: _302  and  _304
REMARK  125  A    between atoms: _304  and  _305
REMARK  126  A    between atoms: _304  and  _307
REMARK  127  A    between atoms: _307  and  _308
REMARK  128  A    between atoms: _311  and  _313
REMARK  129  A    between atoms: _313  and  _314
REMARK  130  A    between atoms: _313  and  _316
REMARK  131  A    between atoms: _316  and  _317
REMARK  132  A    between atoms: _320  and  _322
REMARK  133  A    between atoms: _322  and  _323
REMARK  134  A    between atoms: _322  and  _325
REMARK  135  A    between atoms: _325  and  _326
REMARK  136  A    between atoms: _329  and  _331
REMARK  137  A    between atoms: _331  and  _332
REMARK  138  A    between atoms: _331  and  _334
REMARK  139  A    between atoms: _334  and  _335
REMARK  140  A    between atoms: _338  and  _340
REMARK  141  A    between atoms: _340  and  _341
REMARK  142  A    between atoms: _343  and  _345
REMARK  143  A    between atoms: _345  and  _346
REMARK  144  A    between atoms: _349  and  _351
REMARK  145  A    between atoms: _351  and  _352
REMARK  146  A    between atoms: _351  and  _354
REMARK  147  A    between atoms: _354  and  _355
REMARK  148  A    between atoms: _358  and  _360
REMARK  149  A    between atoms: _360  and  _361
REMARK  150  A    between atoms: _360  and  _363
REMARK  151  A    between atoms: _363  and  _364
REMARK  152  A    between atoms: _367  and  _369
REMARK  153  A    between atoms: _369  and  _370
REMARK  154  A    between atoms: _369  and  _372
REMARK  155  A    between atoms: _372  and  _373
REMARK  156  A    between atoms: _376  and  _378
REMARK  157  A    between atoms: _378  and  _379
REMARK  158  A    between atoms: _378  and  _381
REMARK  159  A    between atoms: _384  and  _386
REMARK  160  A    between atoms: _386  and  _387
REMARK  161  A    between atoms: _386  and  _389
REMARK  162  A    between atoms: _389  and  _390
REMARK  163  A    between atoms: _390  and  _391
REMARK  164  A    between atoms: _391  and  _392
REMARK  165  A    between atoms: _392  and  _393
REMARK  166  A    between atoms: _397  and  _399
REMARK  167  A    between atoms: _399  and  _400
REMARK  168  A    between atoms: _399  and  _402
REMARK  169  A    between atoms: _402  and  _403
REMARK  170  A    between atoms: _403  and  _404
REMARK  171  A    between atoms: _406  and  _408
REMARK  172  A    between atoms: _408  and  _409
REMARK  173  A    between atoms: _408  and  _411
REMARK  174  A    between atoms: _411  and  _412
REMARK  175  A    between atoms: _415  and  _417
REMARK  176  A    between atoms: _417  and  _418
REMARK  177  A    between atoms: _420  and  _422
REMARK  178  A    between atoms: _422  and  _423
REMARK  179  A    between atoms: _425  and  _427
REMARK  180  A    between atoms: _427  and  _428
REMARK  181  A    between atoms: _427  and  _430
REMARK  182  A    between atoms: _430  and  _431
REMARK  183  A    between atoms: _434  and  _436
REMARK  184  A    between atoms: _436  and  _437
REMARK  185  A    between atoms: _439  and  _441
REMARK  186  A    between atoms: _441  and  _442
REMARK  187  A    between atoms: _444  and  _446
REMARK  188  A    between atoms: _446  and  _447
REMARK  189  A    between atoms: _446  and  _449
REMARK  190  A    between atoms: _449  and  _450
REMARK  191  A    between atoms: _456  and  _458
REMARK  192  A    between atoms: _458  and  _459
REMARK  193  A    between atoms: _458  and  _461
REMARK  194  A    between atoms: _461  and  _462
REMARK  195  A    between atoms: _465  and  _467
REMARK  196  A    between atoms: _467  and  _468
REMARK  197  A    between atoms: _467  and  _470
REMARK  198  A    between atoms: _473  and  _475
REMARK  199  A    between atoms: _475  and  _476
REMARK  200  A    between atoms: _475  and  _478
REMARK  201  A    between atoms: _478  and  _479
REMARK  202  A    between atoms: _482  and  _484
REMARK  203  A    between atoms: _484  and  _485
REMARK  204  A    between atoms: _484  and  _487
REMARK  205  A    between atoms: _485  and  _486
REMARK  206  A    between atoms: _485  and  _491
REMARK  207  A    between atoms: _487  and  _488
REMARK  208  A    between atoms: _492  and  _493
REMARK  209  A    between atoms: _498  and  _500
REMARK  210  A    between atoms: _500  and  _501
REMARK  211  A    between atoms: _500  and  _503
REMARK  212  A    between atoms: _503  and  _504
REMARK  213  A    between atoms: _507  and  _509
REMARK  214  A    between atoms: _509  and  _510
REMARK  215  A    between atoms: _509  and  _512
REMARK  216  A    between atoms: _512  and  _513
REMARK  217  A    between atoms: _518  and  _520
REMARK  218  A    between atoms: _520  and  _521
REMARK  219  A    between atoms: _520  and  _523
REMARK  220  A    between atoms: _526  and  _528
REMARK  221  A    between atoms: _528  and  _529
REMARK  222  A    between atoms: _528  and  _531
REMARK  223  A    between atoms: _531  and  _532
REMARK  224  A    between atoms: _535  and  _537
REMARK  225  A    between atoms: _537  and  _538
REMARK  226  A    between atoms: _540  and  _542
REMARK  227  A    between atoms: _542  and  _543
REMARK  228  A    between atoms: _542  and  _545
REMARK  229  A    between atoms: _545  and  _546
REMARK  230  A    between atoms: _546  and  _547
REMARK  231  A    between atoms: _547  and  _548
REMARK                            x       y       z     vdW  Elec       q    Type
REMARK                         _______ _______ _______ _____ _____    ______ ____
ROOT
ATOM      1  O   HOH     1      20.695  21.891   6.311  0.00  0.00    +0.000 OA
ENDROOT
TORSDOF 0
REMARK  Name = ../refined-set-2016/4cps/4cps_pocket.pdb
REMARK  231 active torsions:
REMARK  status: ('A' for Active; 'I' for Inactive)
REMARK    1  A    between atoms: _1  and  _3
REMARK    2  A    between atoms: _3  and  _4
REMARK    3  A    between atoms: _3  and  _6
REMARK    4  A    between atoms: _6  and  _7
REMARK    5  A    between atoms: _7  and  _8
REMARK    6  A    between atoms: _8  and  _9
REMARK    7  A    between atoms: _18  and  _20
REMARK    8  A    between atoms: _20  and  _21
REMARK    9  A    between atoms: _20  and  _23
REMARK   10  A    between atoms: _23  and  _24
REMARK   11  A    between atoms: _27  and  _29
REMARK   12  A    between atoms: _29  and  _30
REMARK   13  A    between atoms: _29  and  _32
REMARK   14  A    between atoms: _32  and  _33
REMARK   15  A    between atoms: _36  and  _38
REMARK   16  A    between atoms: _38  and  _39
REMARK   17  A    between atoms: _38  and  _41
REMARK   18  A    between atoms: _41  and  _42
REMARK   19  A    between atoms: _45  and  _47
REMARK   20  A    between atoms: _47  and  _48
REMARK   21  A    between atoms: _47  and  _50
REMARK   22  A    between atoms: _50  and  _51
REMARK   23  A    between atoms: _54  and  _56
REMARK   24  A    between atoms: _56  and  _57
REMARK   25  A    between atoms: _59  and  _61
REMARK   26  A    between atoms: _61  and  _62
REMARK   27  A    between atoms: _65  and  _67
REMARK   28  A    between atoms: _67  and  _68
REMARK   29  A    between atoms: _67  and  _70
REMARK   30  A    between atoms: _70  and  _71
REMARK   31  A    between atoms: _74  and  _76
REMARK   32  A    between atoms: _76  and  _77
REMARK   33  A    between atoms: _76  and  _79
REMARK   34  A    between atoms: _79  and  _80
REMARK   35  A    between atoms: _83  and  _85
REMARK   36  A    between atoms: _85  and  _86
REMARK   37  A    between atoms: _85  and  _88
REMARK   38  A    between atoms: _88  and  _89
REMARK   39  A    between atoms: _92  and  _94
REMARK   40  A    between atoms: _94  and  _95
REMARK   41  A    between atoms: _94  and  _97
REMARK   42  A    between atoms: _100  and  _102
REMARK   43  A    between atoms: _102  and  _103
REMARK   44  A    between atoms: _102  and  _105
REMARK   45  A    between atoms: _105  and  _106
REMARK   46  A    between atoms: _106  and  _107
REMARK   47  A    between atoms: _107  and  _108
REMARK   48  A    between atoms: _108  and  _109
REMARK   49  A    between atoms: _113  and  _115
REMARK   50  A    between atoms: _115  and  _116
REMARK   51  A    between atoms: _115  and  _118
REMARK   52  A    between atoms: _118  and  _119
REMARK   53  A    between atoms: _119  and  _120
REMARK   54  A    between atoms: _122  and  _124
REMARK   55  A    between atoms: _124  and  _125
REMARK   56  A    between atoms: _124  and  _127
REMARK   57  A    between atoms: _127  and  _128
REMARK   58  A    between atoms: _131  and  _133
REMARK   59  A    between atoms: _133  and  _134
REMARK   60  A    between atoms: _136  and  _138
REMARK   61  A    between atoms: _138  and  _139
REMARK   62  A    between atoms: _141  and  _143
REMARK   63  A    between atoms: _143  and  _144
REMARK   64  A    between atoms: _143  and  _146
REMARK   65  A    between atoms: _146  and  _147
REMARK   66  A    between atoms: _150  and  _152
REMARK   67  A    between atoms: _152  and  _153
REMARK   68  A    between atoms: _155  and  _157
REMARK   69  A    between atoms: _157  and  _158
REMARK   70  A    between atoms: _160  and  _162
REMARK   71  A    between atoms: _162  and  _163
REMARK   72  A    between atoms: _162  and  _165
REMARK   73  A    between atoms: _165  and  _166
REMARK   74  A    between atoms: _172  and  _174
REMARK   75  A    between atoms: _174  and  _175
REMARK   76  A    between atoms: _174  and  _177
REMARK   77  A    between atoms: _177  and  _178
REMARK   78  A    between atoms: _181  and  _183
REMARK   79  A    between atoms: _183  and  _184
REMARK   80  A    between atoms: _183  and  _186
REMARK   81  A    between atoms: _186  and  _187
REMARK   82  A    between atoms: _190  and  _192
REMARK   83  A    between atoms: _192  and  _193
REMARK   84  A    between atoms: _192  and  _195
REMARK   85  A    between atoms: _195  and  _196
REMARK   86  A    between atoms: _200  and  _201
REMARK   87  A    between atoms: _206  and  _208
REMARK   88  A    between atoms: _208  and  _209
REMARK   89  A    between atoms: _208  and  _211
REMARK   90  A    between atoms: _211  and  _212
REMARK   91  A    between atoms: _215  and  _217
REMARK   92  A    between atoms: _217  and  _218
REMARK   93  A    between atoms: _217  and  _220
REMARK   94  A    between atoms: _220  and  _221
REMARK   95  A    between atoms: _226  and  _228
REMARK   96  A    between atoms: _228  and  _229
REMARK   97  A    between atoms: _228  and  _231
REMARK   98  A    between atoms: _234  and  _236
REMARK   99  A    between atoms: _236  and  _237
REMARK  100  A    between atoms: _236  and  _239
REMARK  101  A    between atoms: _239  and  _240
REMARK  102  A    between atoms: _243  and  _245
REMARK  103  A    between atoms: _245  and  _246
REMARK  104  A    between atoms: _248  and  _250
REMARK  105  A    between atoms: _250  and  _251
REMARK  106  A    between atoms: _250  and  _253
REMARK  107  A    between atoms: _253  and  _254
REMARK  108  A    between atoms: _254  and  _255
REMARK  109  A    between atoms: _255  and  _256
REMARK  110  A    between atoms: _265  and  _267
REMARK  111  A    between atoms: _267  and  _268
REMARK  112  A    between atoms: _267  and  _270
REMARK  113  A    between atoms: _270  and  _271
REMARK  114  A    between atoms: _276  and  _278
REMARK  115  A    between atoms: _278  and  _279
REMARK  116  A    between atoms: _278  and  _281
REMARK  117  A    between atoms: _281  and  _282
REMARK  118  A    between atoms: _282  and  _283
REMARK  119  A    between atoms: _283  and  _284
REMARK  120  A    between atoms: _293  and  _295
REMARK  121  A    between atoms: _295  and  _296
REMARK  122  A    between atoms: _295  and  _298
REMARK  123  A    between atoms: _298  and  _299
REMARK  124  A    between atoms: _302  and  _304
REMARK  125  A    between atoms: _304  and  _305
REMARK  126  A    between atoms: _304  and  _307
REMARK  127  A    between atoms: _307  and  _308
REMARK  128  A    between atoms: _311  and  _313
REMARK  129  A    between atoms: _313  and  _314
REMARK  130  A    between atoms: _313  and  _316
REMARK  131  A    between atoms: _316  and  _317
REMARK  132  A    between atoms: _320  and  _322
REMARK  133  A    between atoms: _322  and  _323
REMARK  134  A    between atoms: _322  and  _325
REMARK  135  A    between atoms: _325  and  _326
REMARK  136  A    between atoms: _329  and  _331
REMARK  137  A    between atoms: _331  and  _332
REMARK  138  A    between atoms: _331  and  _334
REMARK  139  A    between atoms: _334  and  _335
REMARK  140  A    between atoms: _338  and  _340
REMARK  141  A    between atoms: _340  and  _341
REMARK  142  A    between atoms: _343  and  _345
REMARK  143  A    between atoms: _345  and  _346
REMARK  144  A    between atoms: _349  and  _351
REMARK  145  A    between atoms: _351  and  _352
REMARK  146  A    between atoms: _351  and  _354
REMARK  147  A    between atoms: _354  and  _355
REMARK  148  A    between atoms: _358  and  _360
REMARK  149  A    between atoms: _360  and  _361
REMARK  150  A    between atoms: _360  and  _363
REMARK  151  A    between atoms: _363  and  _364
REMARK  152  A    between atoms: _367  and  _369
REMARK  153  A    between atoms: _369  and  _370
REMARK  154  A    between atoms: _369  and  _372
REMARK  155  A    between atoms: _372  and  _373
REMARK  156  A    between atoms: _376  and  _378
REMARK  157  A    between atoms: _378  and  _379
REMARK  158  A    between atoms: _378  and  _381
REMARK  159  A    between atoms: _384  and  _386
REMARK  160  A    between atoms: _386  and  _387
REMARK  161  A    between atoms: _386  and  _389
REMARK  162  A    between atoms: _389  and  _390
REMARK  163  A    between atoms: _390  and  _391
REMARK  164  A    between atoms: _391  and  _392
REMARK  165  A    between atoms: _392  and  _393
REMARK  166  A    between atoms: _397  and  _399
REMARK  167  A    between atoms: _399  and  _400
REMARK  168  A    between atoms: _399  and  _402
REMARK  169  A    between atoms: _402  and  _403
REMARK  170  A    between atoms: _403  and  _404
REMARK  171  A    between atoms: _406  and  _408
REMARK  172  A    between atoms: _408  and  _409
REMARK  173  A    between atoms: _408  and  _411
REMARK  174  A    between atoms: _411  and  _412
REMARK  175  A    between atoms: _415  and  _417
REMARK  176  A    between atoms: _417  and  _418
REMARK  177  A    between atoms: _420  and  _422
REMARK  178  A    between atoms: _422  and  _423
REMARK  179  A    between atoms: _425  and  _427
REMARK  180  A    between atoms: _427  and  _428
REMARK  181  A    between atoms: _427  and  _430
REMARK  182  A    between atoms: _430  and  _431
REMARK  183  A    between atoms: _434  and  _436
REMARK  184  A    between atoms: _436  and  _437
REMARK  185  A    between atoms: _439  and  _441
REMARK  186  A    between atoms: _441  and  _442
REMARK  187  A    between atoms: _444  and  _446
REMARK  188  A    between atoms: _446  and  _447
REMARK  189  A    between atoms: _446  and  _449
REMARK  190  A    between atoms: _449  and  _450
REMARK  191  A    between atoms: _456  and  _458
REMARK  192  A    between atoms: _458  and  _459
REMARK  193  A    between atoms: _458  and  _461
REMARK  194  A    between atoms: _461  and  _462
REMARK  195  A    between atoms: _465  and  _467
REMARK  196  A    between atoms: _467  and  _468
REMARK  197  A    between atoms: _467  and  _470
REMARK  198  A    between atoms: _473  and  _475
REMARK  199  A    between atoms: _475  and  _476
REMARK  200  A    between atoms: _475  and  _478
REMARK  201  A    between atoms: _478  and  _479
REMARK  202  A    between atoms: _482  and  _484
REMARK  203  A    between atoms: _484  and  _485
REMARK  204  A    between atoms: _484  and  _487
REMARK  205  A    between atoms: _485  and  _486
REMARK  206  A    between atoms: _485  and  _491
REMARK  207  A    between atoms: _487  and  _488
REMARK  208  A    between atoms: _492  and  _493
REMARK  209  A    between atoms: _498  and  _500
REMARK  210  A    between atoms: _500  and  _501
REMARK  211  A    between atoms: _500  and  _503
REMARK  212  A    between atoms: _503  and  _504
REMARK  213  A    between atoms: _507  and  _509
REMARK  214  A    between atoms: _509  and  _510
REMARK  215  A    between atoms: _509  and  _512
REMARK  216  A    between atoms: _512  and  _513
REMARK  217  A    between atoms: _518  and  _520
REMARK  218  A    between atoms: _520  and  _521
REMARK  219  A    between atoms: _520  and  _523
REMARK  220  A    between atoms: _526  and  _528
REMARK  221  A    between atoms: _528  and  _529
REMARK  222  A    between atoms: _528  and  _531
REMARK  223  A    between atoms: _531  and  _532
REMARK  224  A    between atoms: _535  and  _537
REMARK  225  A    between atoms: _537  and  _538
REMARK  226  A    between atoms: _540  and  _542
REMARK  227  A    between atoms: _542  and  _543
REMARK  228  A    between atoms: _542  and  _545
REMARK  229  A    between atoms: _545  and  _546
REMARK  230  A    between atoms: _546  and  _547
REMARK  231  A    between atoms: _547  and  _548
REMARK                            x       y       z     vdW  Elec       q    Type
REMARK                         _______ _______ _______ _____ _____    ______ ____
ROOT
ATOM      1  O   HOH     1      20.811  18.692  10.728  0.00  0.00    +0.000 OA
ENDROOT
TORSDOF 0
REMARK  Name = ../refined-set-2016/4cps/4cps_pocket.pdb
REMARK  231 active torsions:
REMARK  status: ('A' for Active; 'I' for Inactive)
REMARK    1  A    between atoms: _1  and  _3
REMARK    2  A    between atoms: _3  and  _4
REMARK    3  A    between atoms: _3  and  _6
REMARK    4  A    between atoms: _6  and  _7
REMARK    5  A    between atoms: _7  and  _8
REMARK    6  A    between atoms: _8  and  _9
REMARK    7  A    between atoms: _18  and  _20
REMARK    8  A    between atoms: _20  and  _21
REMARK    9  A    between atoms: _20  and  _23
REMARK   10  A    between atoms: _23  and  _24
REMARK   11  A    between atoms: _27  and  _29
REMARK   12  A    between atoms: _29  and  _30
REMARK   13  A    between atoms: _29  and  _32
REMARK   14  A    between atoms: _32  and  _33
REMARK   15  A    between atoms: _36  and  _38
REMARK   16  A    between atoms: _38  and  _39
REMARK   17  A    between atoms: _38  and  _41
REMARK   18  A    between atoms: _41  and  _42
REMARK   19  A    between atoms: _45  and  _47
REMARK   20  A    between atoms: _47  and  _48
REMARK   21  A    between atoms: _47  and  _50
REMARK   22  A    between atoms: _50  and  _51
REMARK   23  A    between atoms: _54  and  _56
REMARK   24  A    between atoms: _56  and  _57
REMARK   25  A    between atoms: _59  and  _61
REMARK   26  A    between atoms: _61  and  _62
REMARK   27  A    between atoms: _65  and  _67
REMARK   28  A    between atoms: _67  and  _68
REMARK   29  A    between atoms: _67  and  _70
REMARK   30  A    between atoms: _70  and  _71
REMARK   31  A    between atoms: _74  and  _76
REMARK   32  A    between atoms: _76  and  _77
REMARK   33  A    between atoms: _76  and  _79
REMARK   34  A    between atoms: _79  and  _80
REMARK   35  A    between atoms: _83  and  _85
REMARK   36  A    between atoms: _85  and  _86
REMARK   37  A    between atoms: _85  and  _88
REMARK   38  A    between atoms: _88  and  _89
REMARK   39  A    between atoms: _92  and  _94
REMARK   40  A    between atoms: _94  and  _95
REMARK   41  A    between atoms: _94  and  _97
REMARK   42  A    between atoms: _100  and  _102
REMARK   43  A    between atoms: _102  and  _103
REMARK   44  A    between atoms: _102  and  _105
REMARK   45  A    between atoms: _105  and  _106
REMARK   46  A    between atoms: _106  and  _107
REMARK   47  A    between atoms: _107  and  _108
REMARK   48  A    between atoms: _108  and  _109
REMARK   49  A    between atoms: _113  and  _115
REMARK   50  A    between atoms: _115  and  _116
REMARK   51  A    between atoms: _115  and  _118
REMARK   52  A    between atoms: _118  and  _119
REMARK   53  A    between atoms: _119  and  _120
REMARK   54  A    between atoms: _122  and  _124
REMARK   55  A    between atoms: _124  and  _125
REMARK   56  A    between atoms: _124  and  _127
REMARK   57  A    between atoms: _127  and  _128
REMARK   58  A    between atoms: _131  and  _133
REMARK   59  A    between atoms: _133  and  _134
REMARK   60  A    between atoms: _136  and  _138
REMARK   61  A    between atoms: _138  and  _139
REMARK   62  A    between atoms: _141  and  _143
REMARK   63  A    between atoms: _143  and  _144
REMARK   64  A    between atoms: _143  and  _146
REMARK   65  A    between atoms: _146  and  _147
REMARK   66  A    between atoms: _150  and  _152
REMARK   67  A    between atoms: _152  and  _153
REMARK   68  A    between atoms: _155  and  _157
REMARK   69  A    between atoms: _157  and  _158
REMARK   70  A    between atoms: _160  and  _162
REMARK   71  A    between atoms: _162  and  _163
REMARK   72  A    between atoms: _162  and  _165
REMARK   73  A    between atoms: _165  and  _166
REMARK   74  A    between atoms: _172  and  _174
REMARK   75  A    between atoms: _174  and  _175
REMARK   76  A    between atoms: _174  and  _177
REMARK   77  A    between atoms: _177  and  _178
REMARK   78  A    between atoms: _181  and  _183
REMARK   79  A    between atoms: _183  and  _184
REMARK   80  A    between atoms: _183  and  _186
REMARK   81  A    between atoms: _186  and  _187
REMARK   82  A    between atoms: _190  and  _192
REMARK   83  A    between atoms: _192  and  _193
REMARK   84  A    between atoms: _192  and  _195
REMARK   85  A    between atoms: _195  and  _196
REMARK   86  A    between atoms: _200  and  _201
REMARK   87  A    between atoms: _206  and  _208
REMARK   88  A    between atoms: _208  and  _209
REMARK   89  A    between atoms: _208  and  _211
REMARK   90  A    between atoms: _211  and  _212
REMARK   91  A    between atoms: _215  and  _217
REMARK   92  A    between atoms: _217  and  _218
REMARK   93  A    between atoms: _217  and  _220
REMARK   94  A    between atoms: _220  and  _221
REMARK   95  A    between atoms: _226  and  _228
REMARK   96  A    between atoms: _228  and  _229
REMARK   97  A    between atoms: _228  and  _231
REMARK   98  A    between atoms: _234  and  _236
REMARK   99  A    between atoms: _236  and  _237
REMARK  100  A    between atoms: _236  and  _239
REMARK  101  A    between atoms: _239  and  _240
REMARK  102  A    between atoms: _243  and  _245
REMARK  103  A    between atoms: _245  and  _246
REMARK  104  A    between atoms: _248  and  _250
REMARK  105  A    between atoms: _250  and  _251
REMARK  106  A    between atoms: _250  and  _253
REMARK  107  A    between atoms: _253  and  _254
REMARK  108  A    between atoms: _254  and  _255
REMARK  109  A    between atoms: _255  and  _256
REMARK  110  A    between atoms: _265  and  _267
REMARK  111  A    between atoms: _267  and  _268
REMARK  112  A    between atoms: _267  and  _270
REMARK  113  A    between atoms: _270  and  _271
REMARK  114  A    between atoms: _276  and  _278
REMARK  115  A    between atoms: _278  and  _279
REMARK  116  A    between atoms: _278  and  _281
REMARK  117  A    between atoms: _281  and  _282
REMARK  118  A    between atoms: _282  and  _283
REMARK  119  A    between atoms: _283  and  _284
REMARK  120  A    between atoms: _293  and  _295
REMARK  121  A    between atoms: _295  and  _296
REMARK  122  A    between atoms: _295  and  _298
REMARK  123  A    between atoms: _298  and  _299
REMARK  124  A    between atoms: _302  and  _304
REMARK  125  A    between atoms: _304  and  _305
REMARK  126  A    between atoms: _304  and  _307
REMARK  127  A    between atoms: _307  and  _308
REMARK  128  A    between atoms: _311  and  _313
REMARK  129  A    between atoms: _313  and  _314
REMARK  130  A    between atoms: _313  and  _316
REMARK  131  A    between atoms: _316  and  _317
REMARK  132  A    between atoms: _320  and  _322
REMARK  133  A    between atoms: _322  and  _323
REMARK  134  A    between atoms: _322  and  _325
REMARK  135  A    between atoms: _325  and  _326
REMARK  136  A    between atoms: _329  and  _331
REMARK  137  A    between atoms: _331  and  _332
REMARK  138  A    between atoms: _331  and  _334
REMARK  139  A    between atoms: _334  and  _335
REMARK  140  A    between atoms: _338  and  _340
REMARK  141  A    between atoms: _340  and  _341
REMARK  142  A    between atoms: _343  and  _345
REMARK  143  A    between atoms: _345  and  _346
REMARK  144  A    between atoms: _349  and  _351
REMARK  145  A    between atoms: _351  and  _352
REMARK  146  A    between atoms: _351  and  _354
REMARK  147  A    between atoms: _354  and  _355
REMARK  148  A    between atoms: _358  and  _360
REMARK  149  A    between atoms: _360  and  _361
REMARK  150  A    between atoms: _360  and  _363
REMARK  151  A    between atoms: _363  and  _364
REMARK  152  A    between atoms: _367  and  _369
REMARK  153  A    between atoms: _369  and  _370
REMARK  154  A    between atoms: _369  and  _372
REMARK  155  A    between atoms: _372  and  _373
REMARK  156  A    between atoms: _376  and  _378
REMARK  157  A    between atoms: _378  and  _379
REMARK  158  A    between atoms: _378  and  _381
REMARK  159  A    between atoms: _384  and  _386
REMARK  160  A    between atoms: _386  and  _387
REMARK  161  A    between atoms: _386  and  _389
REMARK  162  A    between atoms: _389  and  _390
REMARK  163  A    between atoms: _390  and  _391
REMARK  164  A    between atoms: _391  and  _392
REMARK  165  A    between atoms: _392  and  _393
REMARK  166  A    between atoms: _397  and  _399
REMARK  167  A    between atoms: _399  and  _400
REMARK  168  A    between atoms: _399  and  _402
REMARK  169  A    between atoms: _402  and  _403
REMARK  170  A    between atoms: _403  and  _404
REMARK  171  A    between atoms: _406  and  _408
REMARK  172  A    between atoms: _408  and  _409
REMARK  173  A    between atoms: _408  and  _411
REMARK  174  A    between atoms: _411  and  _412
REMARK  175  A    between atoms: _415  and  _417
REMARK  176  A    between atoms: _417  and  _418
REMARK  177  A    between atoms: _420  and  _422
REMARK  178  A    between atoms: _422  and  _423
REMARK  179  A    between atoms: _425  and  _427
REMARK  180  A    between atoms: _427  and  _428
REMARK  181  A    between atoms: _427  and  _430
REMARK  182  A    between atoms: _430  and  _431
REMARK  183  A    between atoms: _434  and  _436
REMARK  184  A    between atoms: _436  and  _437
REMARK  185  A    between atoms: _439  and  _441
REMARK  186  A    between atoms: _441  and  _442
REMARK  187  A    between atoms: _444  and  _446
REMARK  188  A    between atoms: _446  and  _447
REMARK  189  A    between atoms: _446  and  _449
REMARK  190  A    between atoms: _449  and  _450
REMARK  191  A    between atoms: _456  and  _458
REMARK  192  A    between atoms: _458  and  _459
REMARK  193  A    between atoms: _458  and  _461
REMARK  194  A    between atoms: _461  and  _462
REMARK  195  A    between atoms: _465  and  _467
REMARK  196  A    between atoms: _467  and  _468
REMARK  197  A    between atoms: _467  and  _470
REMARK  198  A    between atoms: _473  and  _475
REMARK  199  A    between atoms: _475  and  _476
REMARK  200  A    between atoms: _475  and  _478
REMARK  201  A    between atoms: _478  and  _479
REMARK  202  A    between atoms: _482  and  _484
REMARK  203  A    between atoms: _484  and  _485
REMARK  204  A    between atoms: _484  and  _487
REMARK  205  A    between atoms: _485  and  _486
REMARK  206  A    between atoms: _485  and  _491
REMARK  207  A    between atoms: _487  and  _488
REMARK  208  A    between atoms: _492  and  _493
REMARK  209  A    between atoms: _498  and  _500
REMARK  210  A    between atoms: _500  and  _501
REMARK  211  A    between atoms: _500  and  _503
REMARK  212  A    between atoms: _503  and  _504
REMARK  213  A    between atoms: _507  and  _509
REMARK  214  A    between atoms: _509  and  _510
REMARK  215  A    between atoms: _509  and  _512
REMARK  216  A    between atoms: _512  and  _513
REMARK  217  A    between atoms: _518  and  _520
REMARK  218  A    between atoms: _520  and  _521
REMARK  219  A    between atoms: _520  and  _523
REMARK  220  A    between atoms: _526  and  _528
REMARK  221  A    between atoms: _528  and  _529
REMARK  222  A    between atoms: _528  and  _531
REMARK  223  A    between atoms: _531  and  _532
REMARK  224  A    between atoms: _535  and  _537
REMARK  225  A    between atoms: _537  and  _538
REMARK  226  A    between atoms: _540  and  _542
REMARK  227  A    between atoms: _542  and  _543
REMARK  228  A    between atoms: _542  and  _545
REMARK  229  A    between atoms: _545  and  _546
REMARK  230  A    between atoms: _546  and  _547
REMARK  231  A    between atoms: _547  and  _548
REMARK                            x       y       z     vdW  Elec       q    Type
REMARK                         _______ _______ _______ _____ _____    ______ ____
ROOT
ATOM      1  O   HOH     1      24.145  21.721  11.695  0.00  0.00    +0.000 OA
ENDROOT
TORSDOF 0
REMARK  Name = ../refined-set-2016/4cps/4cps_pocket.pdb
REMARK  231 active torsions:
REMARK  status: ('A' for Active; 'I' for Inactive)
REMARK    1  A    between atoms: _1  and  _3
REMARK    2  A    between atoms: _3  and  _4
REMARK    3  A    between atoms: _3  and  _6
REMARK    4  A    between atoms: _6  and  _7
REMARK    5  A    between atoms: _7  and  _8
REMARK    6  A    between atoms: _8  and  _9
REMARK    7  A    between atoms: _18  and  _20
REMARK    8  A    between atoms: _20  and  _21
REMARK    9  A    between atoms: _20  and  _23
REMARK   10  A    between atoms: _23  and  _24
REMARK   11  A    between atoms: _27  and  _29
REMARK   12  A    between atoms: _29  and  _30
REMARK   13  A    between atoms: _29  and  _32
REMARK   14  A    between atoms: _32  and  _33
REMARK   15  A    between atoms: _36  and  _38
REMARK   16  A    between atoms: _38  and  _39
REMARK   17  A    between atoms: _38  and  _41
REMARK   18  A    between atoms: _41  and  _42
REMARK   19  A    between atoms: _45  and  _47
REMARK   20  A    between atoms: _47  and  _48
REMARK   21  A    between atoms: _47  and  _50
REMARK   22  A    between atoms: _50  and  _51
REMARK   23  A    between atoms: _54  and  _56
REMARK   24  A    between atoms: _56  and  _57
REMARK   25  A    between atoms: _59  and  _61
REMARK   26  A    between atoms: _61  and  _62
REMARK   27  A    between atoms: _65  and  _67
REMARK   28  A    between atoms: _67  and  _68
REMARK   29  A    between atoms: _67  and  _70
REMARK   30  A    between atoms: _70  and  _71
REMARK   31  A    between atoms: _74  and  _76
REMARK   32  A    between atoms: _76  and  _77
REMARK   33  A    between atoms: _76  and  _79
REMARK   34  A    between atoms: _79  and  _80
REMARK   35  A    between atoms: _83  and  _85
REMARK   36  A    between atoms: _85  and  _86
REMARK   37  A    between atoms: _85  and  _88
REMARK   38  A    between atoms: _88  and  _89
REMARK   39  A    between atoms: _92  and  _94
REMARK   40  A    between atoms: _94  and  _95
REMARK   41  A    between atoms: _94  and  _97
REMARK   42  A    between atoms: _100  and  _102
REMARK   43  A    between atoms: _102  and  _103
REMARK   44  A    between atoms: _102  and  _105
REMARK   45  A    between atoms: _105  and  _106
REMARK   46  A    between atoms: _106  and  _107
REMARK   47  A    between atoms: _107  and  _108
REMARK   48  A    between atoms: _108  and  _109
REMARK   49  A    between atoms: _113  and  _115
REMARK   50  A    between atoms: _115  and  _116
REMARK   51  A    between atoms: _115  and  _118
REMARK   52  A    between atoms: _118  and  _119
REMARK   53  A    between atoms: _119  and  _120
REMARK   54  A    between atoms: _122  and  _124
REMARK   55  A    between atoms: _124  and  _125
REMARK   56  A    between atoms: _124  and  _127
REMARK   57  A    between atoms: _127  and  _128
REMARK   58  A    between atoms: _131  and  _133
REMARK   59  A    between atoms: _133  and  _134
REMARK   60  A    between atoms: _136  and  _138
REMARK   61  A    between atoms: _138  and  _139
REMARK   62  A    between atoms: _141  and  _143
REMARK   63  A    between atoms: _143  and  _144
REMARK   64  A    between atoms: _143  and  _146
REMARK   65  A    between atoms: _146  and  _147
REMARK   66  A    between atoms: _150  and  _152
REMARK   67  A    between atoms: _152  and  _153
REMARK   68  A    between atoms: _155  and  _157
REMARK   69  A    between atoms: _157  and  _158
REMARK   70  A    between atoms: _160  and  _162
REMARK   71  A    between atoms: _162  and  _163
REMARK   72  A    between atoms: _162  and  _165
REMARK   73  A    between atoms: _165  and  _166
REMARK   74  A    between atoms: _172  and  _174
REMARK   75  A    between atoms: _174  and  _175
REMARK   76  A    between atoms: _174  and  _177
REMARK   77  A    between atoms: _177  and  _178
REMARK   78  A    between atoms: _181  and  _183
REMARK   79  A    between atoms: _183  and  _184
REMARK   80  A    between atoms: _183  and  _186
REMARK   81  A    between atoms: _186  and  _187
REMARK   82  A    between atoms: _190  and  _192
REMARK   83  A    between atoms: _192  and  _193
REMARK   84  A    between atoms: _192  and  _195
REMARK   85  A    between atoms: _195  and  _196
REMARK   86  A    between atoms: _200  and  _201
REMARK   87  A    between atoms: _206  and  _208
REMARK   88  A    between atoms: _208  and  _209
REMARK   89  A    between atoms: _208  and  _211
REMARK   90  A    between atoms: _211  and  _212
REMARK   91  A    between atoms: _215  and  _217
REMARK   92  A    between atoms: _217  and  _218
REMARK   93  A    between atoms: _217  and  _220
REMARK   94  A    between atoms: _220  and  _221
REMARK   95  A    between atoms: _226  and  _228
REMARK   96  A    between atoms: _228  and  _229
REMARK   97  A    between atoms: _228  and  _231
REMARK   98  A    between atoms: _234  and  _236
REMARK   99  A    between atoms: _236  and  _237
REMARK  100  A    between atoms: _236  and  _239
REMARK  101  A    between atoms: _239  and  _240
REMARK  102  A    between atoms: _243  and  _245
REMARK  103  A    between atoms: _245  and  _246
REMARK  104  A    between atoms: _248  and  _250
REMARK  105  A    between atoms: _250  and  _251
REMARK  106  A    between atoms: _250  and  _253
REMARK  107  A    between atoms: _253  and  _254
REMARK  108  A    between atoms: _254  and  _255
REMARK  109  A    between atoms: _255  and  _256
REMARK  110  A    between atoms: _265  and  _267
REMARK  111  A    between atoms: _267  and  _268
REMARK  112  A    between atoms: _267  and  _270
REMARK  113  A    between atoms: _270  and  _271
REMARK  114  A    between atoms: _276  and  _278
REMARK  115  A    between atoms: _278  and  _279
REMARK  116  A    between atoms: _278  and  _281
REMARK  117  A    between atoms: _281  and  _282
REMARK  118  A    between atoms: _282  and  _283
REMARK  119  A    between atoms: _283  and  _284
REMARK  120  A    between atoms: _293  and  _295
REMARK  121  A    between atoms: _295  and  _296
REMARK  122  A    between atoms: _295  and  _298
REMARK  123  A    between atoms: _298  and  _299
REMARK  124  A    between atoms: _302  and  _304
REMARK  125  A    between atoms: _304  and  _305
REMARK  126  A    between atoms: _304  and  _307
REMARK  127  A    between atoms: _307  and  _308
REMARK  128  A    between atoms: _311  and  _313
REMARK  129  A    between atoms: _313  and  _314
REMARK  130  A    between atoms: _313  and  _316
REMARK  131  A    between atoms: _316  and  _317
REMARK  132  A    between atoms: _320  and  _322
REMARK  133  A    between atoms: _322  and  _323
REMARK  134  A    between atoms: _322  and  _325
REMARK  135  A    between atoms: _325  and  _326
REMARK  136  A    between atoms: _329  and  _331
REMARK  137  A    between atoms: _331  and  _332
REMARK  138  A    between atoms: _331  and  _334
REMARK  139  A    between atoms: _334  and  _335
REMARK  140  A    between atoms: _338  and  _340
REMARK  141  A    between atoms: _340  and  _341
REMARK  142  A    between atoms: _343  and  _345
REMARK  143  A    between atoms: _345  and  _346
REMARK  144  A    between atoms: _349  and  _351
REMARK  145  A    between atoms: _351  and  _352
REMARK  146  A    between atoms: _351  and  _354
REMARK  147  A    between atoms: _354  and  _355
REMARK  148  A    between atoms: _358  and  _360
REMARK  149  A    between atoms: _360  and  _361
REMARK  150  A    between atoms: _360  and  _363
REMARK  151  A    between atoms: _363  and  _364
REMARK  152  A    between atoms: _367  and  _369
REMARK  153  A    between atoms: _369  and  _370
REMARK  154  A    between atoms: _369  and  _372
REMARK  155  A    between atoms: _372  and  _373
REMARK  156  A    between atoms: _376  and  _378
REMARK  157  A    between atoms: _378  and  _379
REMARK  158  A    between atoms: _378  and  _381
REMARK  159  A    between atoms: _384  and  _386
REMARK  160  A    between atoms: _386  and  _387
REMARK  161  A    between atoms: _386  and  _389
REMARK  162  A    between atoms: _389  and  _390
REMARK  163  A    between atoms: _390  and  _391
REMARK  164  A    between atoms: _391  and  _392
REMARK  165  A    between atoms: _392  and  _393
REMARK  166  A    between atoms: _397  and  _399
REMARK  167  A    between atoms: _399  and  _400
REMARK  168  A    between atoms: _399  and  _402
REMARK  169  A    between atoms: _402  and  _403
REMARK  170  A    between atoms: _403  and  _404
REMARK  171  A    between atoms: _406  and  _408
REMARK  172  A    between atoms: _408  and  _409
REMARK  173  A    between atoms: _408  and  _411
REMARK  174  A    between atoms: _411  and  _412
REMARK  175  A    between atoms: _415  and  _417
REMARK  176  A    between atoms: _417  and  _418
REMARK  177  A    between atoms: _420  and  _422
REMARK  178  A    between atoms: _422  and  _423
REMARK  179  A    between atoms: _425  and  _427
REMARK  180  A    between atoms: _427  and  _428
REMARK  181  A    between atoms: _427  and  _430
REMARK  182  A    between atoms: _430  and  _431
REMARK  183  A    between atoms: _434  and  _436
REMARK  184  A    between atoms: _436  and  _437
REMARK  185  A    between atoms: _439  and  _441
REMARK  186  A    between atoms: _441  and  _442
REMARK  187  A    between atoms: _444  and  _446
REMARK  188  A    between atoms: _446  and  _447
REMARK  189  A    between atoms: _446  and  _449
REMARK  190  A    between atoms: _449  and  _450
REMARK  191  A    between atoms: _456  and  _458
REMARK  192  A    between atoms: _458  and  _459
REMARK  193  A    between atoms: _458  and  _461
REMARK  194  A    between atoms: _461  and  _462
REMARK  195  A    between atoms: _465  and  _467
REMARK  196  A    between atoms: _467  and  _468
REMARK  197  A    between atoms: _467  and  _470
REMARK  198  A    between atoms: _473  and  _475
REMARK  199  A    between atoms: _475  and  _476
REMARK  200  A    between atoms: _475  and  _478
REMARK  201  A    between atoms: _478  and  _479
REMARK  202  A    between atoms: _482  and  _484
REMARK  203  A    between atoms: _484  and  _485
REMARK  204  A    between atoms: _484  and  _487
REMARK  205  A    between atoms: _485  and  _486
REMARK  206  A    between atoms: _485  and  _491
REMARK  207  A    between atoms: _487  and  _488
REMARK  208  A    between atoms: _492  and  _493
REMARK  209  A    between atoms: _498  and  _500
REMARK  210  A    between atoms: _500  and  _501
REMARK  211  A    between atoms: _500  and  _503
REMARK  212  A    between atoms: _503  and  _504
REMARK  213  A    between atoms: _507  and  _509
REMARK  214  A    between atoms: _509  and  _510
REMARK  215  A    between atoms: _509  and  _512
REMARK  216  A    between atoms: _512  and  _513
REMARK  217  A    between atoms: _518  and  _520
REMARK  218  A    between atoms: _520  and  _521
REMARK  219  A    between atoms: _520  and  _523
REMARK  220  A    between atoms: _526  and  _528
REMARK  221  A    between atoms: _528  and  _529
REMARK  222  A    between atoms: _528  and  _531
REMARK  223  A    between atoms: _531  and  _532
REMARK  224  A    between atoms: _535  and  _537
REMARK  225  A    between atoms: _537  and  _538
REMARK  226  A    between atoms: _540  and  _542
REMARK  227  A    between atoms: _542  and  _543
REMARK  228  A    between atoms: _542  and  _545
REMARK  229  A    between atoms: _545  and  _546
REMARK  230  A    between atoms: _546  and  _547
REMARK  231  A    between atoms: _547  and  _548
REMARK                            x       y       z     vdW  Elec       q    Type
REMARK                         _______ _______ _______ _____ _____    ______ ____
ROOT
ATOM      1  O   HOH     1      20.407  24.897  12.949  0.00  0.00    +0.000 OA
ENDROOT
TORSDOF 0
REMARK  Name = ../refined-set-2016/4cps/4cps_pocket.pdb
REMARK  231 active torsions:
REMARK  status: ('A' for Active; 'I' for Inactive)
REMARK    1  A    between atoms: _1  and  _3
REMARK    2  A    between atoms: _3  and  _4
REMARK    3  A    between atoms: _3  and  _6
REMARK    4  A    between atoms: _6  and  _7
REMARK    5  A    between atoms: _7  and  _8
REMARK    6  A    between atoms: _8  and  _9
REMARK    7  A    between atoms: _18  and  _20
REMARK    8  A    between atoms: _20  and  _21
REMARK    9  A    between atoms: _20  and  _23
REMARK   10  A    between atoms: _23  and  _24
REMARK   11  A    between atoms: _27  and  _29
REMARK   12  A    between atoms: _29  and  _30
REMARK   13  A    between atoms: _29  and  _32
REMARK   14  A    between atoms: _32  and  _33
REMARK   15  A    between atoms: _36  and  _38
REMARK   16  A    between atoms: _38  and  _39
REMARK   17  A    between atoms: _38  and  _41
REMARK   18  A    between atoms: _41  and  _42
REMARK   19  A    between atoms: _45  and  _47
REMARK   20  A    between atoms: _47  and  _48
REMARK   21  A    between atoms: _47  and  _50
REMARK   22  A    between atoms: _50  and  _51
REMARK   23  A    between atoms: _54  and  _56
REMARK   24  A    between atoms: _56  and  _57
REMARK   25  A    between atoms: _59  and  _61
REMARK   26  A    between atoms: _61  and  _62
REMARK   27  A    between atoms: _65  and  _67
REMARK   28  A    between atoms: _67  and  _68
REMARK   29  A    between atoms: _67  and  _70
REMARK   30  A    between atoms: _70  and  _71
REMARK   31  A    between atoms: _74  and  _76
REMARK   32  A    between atoms: _76  and  _77
REMARK   33  A    between atoms: _76  and  _79
REMARK   34  A    between atoms: _79  and  _80
REMARK   35  A    between atoms: _83  and  _85
REMARK   36  A    between atoms: _85  and  _86
REMARK   37  A    between atoms: _85  and  _88
REMARK   38  A    between atoms: _88  and  _89
REMARK   39  A    between atoms: _92  and  _94
REMARK   40  A    between atoms: _94  and  _95
REMARK   41  A    between atoms: _94  and  _97
REMARK   42  A    between atoms: _100  and  _102
REMARK   43  A    between atoms: _102  and  _103
REMARK   44  A    between atoms: _102  and  _105
REMARK   45  A    between atoms: _105  and  _106
REMARK   46  A    between atoms: _106  and  _107
REMARK   47  A    between atoms: _107  and  _108
REMARK   48  A    between atoms: _108  and  _109
REMARK   49  A    between atoms: _113  and  _115
REMARK   50  A    between atoms: _115  and  _116
REMARK   51  A    between atoms: _115  and  _118
REMARK   52  A    between atoms: _118  and  _119
REMARK   53  A    between atoms: _119  and  _120
REMARK   54  A    between atoms: _122  and  _124
REMARK   55  A    between atoms: _124  and  _125
REMARK   56  A    between atoms: _124  and  _127
REMARK   57  A    between atoms: _127  and  _128
REMARK   58  A    between atoms: _131  and  _133
REMARK   59  A    between atoms: _133  and  _134
REMARK   60  A    between atoms: _136  and  _138
REMARK   61  A    between atoms: _138  and  _139
REMARK   62  A    between atoms: _141  and  _143
REMARK   63  A    between atoms: _143  and  _144
REMARK   64  A    between atoms: _143  and  _146
REMARK   65  A    between atoms: _146  and  _147
REMARK   66  A    between atoms: _150  and  _152
REMARK   67  A    between atoms: _152  and  _153
REMARK   68  A    between atoms: _155  and  _157
REMARK   69  A    between atoms: _157  and  _158
REMARK   70  A    between atoms: _160  and  _162
REMARK   71  A    between atoms: _162  and  _163
REMARK   72  A    between atoms: _162  and  _165
REMARK   73  A    between atoms: _165  and  _166
REMARK   74  A    between atoms: _172  and  _174
REMARK   75  A    between atoms: _174  and  _175
REMARK   76  A    between atoms: _174  and  _177
REMARK   77  A    between atoms: _177  and  _178
REMARK   78  A    between atoms: _181  and  _183
REMARK   79  A    between atoms: _183  and  _184
REMARK   80  A    between atoms: _183  and  _186
REMARK   81  A    between atoms: _186  and  _187
REMARK   82  A    between atoms: _190  and  _192
REMARK   83  A    between atoms: _192  and  _193
REMARK   84  A    between atoms: _192  and  _195
REMARK   85  A    between atoms: _195  and  _196
REMARK   86  A    between atoms: _200  and  _201
REMARK   87  A    between atoms: _206  and  _208
REMARK   88  A    between atoms: _208  and  _209
REMARK   89  A    between atoms: _208  and  _211
REMARK   90  A    between atoms: _211  and  _212
REMARK   91  A    between atoms: _215  and  _217
REMARK   92  A    between atoms: _217  and  _218
REMARK   93  A    between atoms: _217  and  _220
REMARK   94  A    between atoms: _220  and  _221
REMARK   95  A    between atoms: _226  and  _228
REMARK   96  A    between atoms: _228  and  _229
REMARK   97  A    between atoms: _228  and  _231
REMARK   98  A    between atoms: _234  and  _236
REMARK   99  A    between atoms: _236  and  _237
REMARK  100  A    between atoms: _236  and  _239
REMARK  101  A    between atoms: _239  and  _240
REMARK  102  A    between atoms: _243  and  _245
REMARK  103  A    between atoms: _245  and  _246
REMARK  104  A    between atoms: _248  and  _250
REMARK  105  A    between atoms: _250  and  _251
REMARK  106  A    between atoms: _250  and  _253
REMARK  107  A    between atoms: _253  and  _254
REMARK  108  A    between atoms: _254  and  _255
REMARK  109  A    between atoms: _255  and  _256
REMARK  110  A    between atoms: _265  and  _267
REMARK  111  A    between atoms: _267  and  _268
REMARK  112  A    between atoms: _267  and  _270
REMARK  113  A    between atoms: _270  and  _271
REMARK  114  A    between atoms: _276  and  _278
REMARK  115  A    between atoms: _278  and  _279
REMARK  116  A    between atoms: _278  and  _281
REMARK  117  A    between atoms: _281  and  _282
REMARK  118  A    between atoms: _282  and  _283
REMARK  119  A    between atoms: _283  and  _284
REMARK  120  A    between atoms: _293  and  _295
REMARK  121  A    between atoms: _295  and  _296
REMARK  122  A    between atoms: _295  and  _298
REMARK  123  A    between atoms: _298  and  _299
REMARK  124  A    between atoms: _302  and  _304
REMARK  125  A    between atoms: _304  and  _305
REMARK  126  A    between atoms: _304  and  _307
REMARK  127  A    between atoms: _307  and  _308
REMARK  128  A    between atoms: _311  and  _313
REMARK  129  A    between atoms: _313  and  _314
REMARK  130  A    between atoms: _313  and  _316
REMARK  131  A    between atoms: _316  and  _317
REMARK  132  A    between atoms: _320  and  _322
REMARK  133  A    between atoms: _322  and  _323
REMARK  134  A    between atoms: _322  and  _325
REMARK  135  A    between atoms: _325  and  _326
REMARK  136  A    between atoms: _329  and  _331
REMARK  137  A    between atoms: _331  and  _332
REMARK  138  A    between atoms: _331  and  _334
REMARK  139  A    between atoms: _334  and  _335
REMARK  140  A    between atoms: _338  and  _340
REMARK  141  A    between atoms: _340  and  _341
REMARK  142  A    between atoms: _343  and  _345
REMARK  143  A    between atoms: _345  and  _346
REMARK  144  A    between atoms: _349  and  _351
REMARK  145  A    between atoms: _351  and  _352
REMARK  146  A    between atoms: _351  and  _354
REMARK  147  A    between atoms: _354  and  _355
REMARK  148  A    between atoms: _358  and  _360
REMARK  149  A    between atoms: _360  and  _361
REMARK  150  A    between atoms: _360  and  _363
REMARK  151  A    between atoms: _363  and  _364
REMARK  152  A    between atoms: _367  and  _369
REMARK  153  A    between atoms: _369  and  _370
REMARK  154  A    between atoms: _369  and  _372
REMARK  155  A    between atoms: _372  and  _373
REMARK  156  A    between atoms: _376  and  _378
REMARK  157  A    between atoms: _378  and  _379
REMARK  158  A    between atoms: _378  and  _381
REMARK  159  A    between atoms: _384  and  _386
REMARK  160  A    between atoms: _386  and  _387
REMARK  161  A    between atoms: _386  and  _389
REMARK  162  A    between atoms: _389  and  _390
REMARK  163  A    between atoms: _390  and  _391
REMARK  164  A    between atoms: _391  and  _392
REMARK  165  A    between atoms: _392  and  _393
REMARK  166  A    between atoms: _397  and  _399
REMARK  167  A    between atoms: _399  and  _400
REMARK  168  A    between atoms: _399  and  _402
REMARK  169  A    between atoms: _402  and  _403
REMARK  170  A    between atoms: _403  and  _404
REMARK  171  A    between atoms: _406  and  _408
REMARK  172  A    between atoms: _408  and  _409
REMARK  173  A    between atoms: _408  and  _411
REMARK  174  A    between atoms: _411  and  _412
REMARK  175  A    between atoms: _415  and  _417
REMARK  176  A    between atoms: _417  and  _418
REMARK  177  A    between atoms: _420  and  _422
REMARK  178  A    between atoms: _422  and  _423
REMARK  179  A    between atoms: _425  and  _427
REMARK  180  A    between atoms: _427  and  _428
REMARK  181  A    between atoms: _427  and  _430
REMARK  182  A    between atoms: _430  and  _431
REMARK  183  A    between atoms: _434  and  _436
REMARK  184  A    between atoms: _436  and  _437
REMARK  185  A    between atoms: _439  and  _441
REMARK  186  A    between atoms: _441  and  _442
REMARK  187  A    between atoms: _444  and  _446
REMARK  188  A    between atoms: _446  and  _447
REMARK  189  A    between atoms: _446  and  _449
REMARK  190  A    between atoms: _449  and  _450
REMARK  191  A    between atoms: _456  and  _458
REMARK  192  A    between atoms: _458  and  _459
REMARK  193  A    between atoms: _458  and  _461
REMARK  194  A    between atoms: _461  and  _462
REMARK  195  A    between atoms: _465  and  _467
REMARK  196  A    between atoms: _467  and  _468
REMARK  197  A    between atoms: _467  and  _470
REMARK  198  A    between atoms: _473  and  _475
REMARK  199  A    between atoms: _475  and  _476
REMARK  200  A    between atoms: _475  and  _478
REMARK  201  A    between atoms: _478  and  _479
REMARK  202  A    between atoms: _482  and  _484
REMARK  203  A    between atoms: _484  and  _485
REMARK  204  A    between atoms: _484  and  _487
REMARK  205  A    between atoms: _485  and  _486
REMARK  206  A    between atoms: _485  and  _491
REMARK  207  A    between atoms: _487  and  _488
REMARK  208  A    between atoms: _492  and  _493
REMARK  209  A    between atoms: _498  and  _500
REMARK  210  A    between atoms: _500  and  _501
REMARK  211  A    between atoms: _500  and  _503
REMARK  212  A    between atoms: _503  and  _504
REMARK  213  A    between atoms: _507  and  _509
REMARK  214  A    between atoms: _509  and  _510
REMARK  215  A    between atoms: _509  and  _512
REMARK  216  A    between atoms: _512  and  _513
REMARK  217  A    between atoms: _518  and  _520
REMARK  218  A    between atoms: _520  and  _521
REMARK  219  A    between atoms: _520  and  _523
REMARK  220  A    between atoms: _526  and  _528
REMARK  221  A    between atoms: _528  and  _529
REMARK  222  A    between atoms: _528  and  _531
REMARK  223  A    between atoms: _531  and  _532
REMARK  224  A    between atoms: _535  and  _537
REMARK  225  A    between atoms: _537  and  _538
REMARK  226  A    between atoms: _540  and  _542
REMARK  227  A    between atoms: _542  and  _543
REMARK  228  A    between atoms: _542  and  _545
REMARK  229  A    between atoms: _545  and  _546
REMARK  230  A    between atoms: _546  and  _547
REMARK  231  A    between atoms: _547  and  _548
REMARK                            x       y       z     vdW  Elec       q    Type
REMARK                         _______ _______ _______ _____ _____    ______ ____
ROOT
ATOM      1  O   HOH     1      10.694  30.697   1.618  0.00  0.00    +0.000 OA
ENDROOT
TORSDOF 0
REMARK  Name = ../refined-set-2016/4cps/4cps_pocket.pdb
REMARK  231 active torsions:
REMARK  status: ('A' for Active; 'I' for Inactive)
REMARK    1  A    between atoms: _1  and  _3
REMARK    2  A    between atoms: _3  and  _4
REMARK    3  A    between atoms: _3  and  _6
REMARK    4  A    between atoms: _6  and  _7
REMARK    5  A    between atoms: _7  and  _8
REMARK    6  A    between atoms: _8  and  _9
REMARK    7  A    between atoms: _18  and  _20
REMARK    8  A    between atoms: _20  and  _21
REMARK    9  A    between atoms: _20  and  _23
REMARK   10  A    between atoms: _23  and  _24
REMARK   11  A    between atoms: _27  and  _29
REMARK   12  A    between atoms: _29  and  _30
REMARK   13  A    between atoms: _29  and  _32
REMARK   14  A    between atoms: _32  and  _33
REMARK   15  A    between atoms: _36  and  _38
REMARK   16  A    between atoms: _38  and  _39
REMARK   17  A    between atoms: _38  and  _41
REMARK   18  A    between atoms: _41  and  _42
REMARK   19  A    between atoms: _45  and  _47
REMARK   20  A    between atoms: _47  and  _48
REMARK   21  A    between atoms: _47  and  _50
REMARK   22  A    between atoms: _50  and  _51
REMARK   23  A    between atoms: _54  and  _56
REMARK   24  A    between atoms: _56  and  _57
REMARK   25  A    between atoms: _59  and  _61
REMARK   26  A    between atoms: _61  and  _62
REMARK   27  A    between atoms: _65  and  _67
REMARK   28  A    between atoms: _67  and  _68
REMARK   29  A    between atoms: _67  and  _70
REMARK   30  A    between atoms: _70  and  _71
REMARK   31  A    between atoms: _74  and  _76
REMARK   32  A    between atoms: _76  and  _77
REMARK   33  A    between atoms: _76  and  _79
REMARK   34  A    between atoms: _79  and  _80
REMARK   35  A    between atoms: _83  and  _85
REMARK   36  A    between atoms: _85  and  _86
REMARK   37  A    between atoms: _85  and  _88
REMARK   38  A    between atoms: _88  and  _89
REMARK   39  A    between atoms: _92  and  _94
REMARK   40  A    between atoms: _94  and  _95
REMARK   41  A    between atoms: _94  and  _97
REMARK   42  A    between atoms: _100  and  _102
REMARK   43  A    between atoms: _102  and  _103
REMARK   44  A    between atoms: _102  and  _105
REMARK   45  A    between atoms: _105  and  _106
REMARK   46  A    between atoms: _106  and  _107
REMARK   47  A    between atoms: _107  and  _108
REMARK   48  A    between atoms: _108  and  _109
REMARK   49  A    between atoms: _113  and  _115
REMARK   50  A    between atoms: _115  and  _116
REMARK   51  A    between atoms: _115  and  _118
REMARK   52  A    between atoms: _118  and  _119
REMARK   53  A    between atoms: _119  and  _120
REMARK   54  A    between atoms: _122  and  _124
REMARK   55  A    between atoms: _124  and  _125
REMARK   56  A    between atoms: _124  and  _127
REMARK   57  A    between atoms: _127  and  _128
REMARK   58  A    between atoms: _131  and  _133
REMARK   59  A    between atoms: _133  and  _134
REMARK   60  A    between atoms: _136  and  _138
REMARK   61  A    between atoms: _138  and  _139
REMARK   62  A    between atoms: _141  and  _143
REMARK   63  A    between atoms: _143  and  _144
REMARK   64  A    between atoms: _143  and  _146
REMARK   65  A    between atoms: _146  and  _147
REMARK   66  A    between atoms: _150  and  _152
REMARK   67  A    between atoms: _152  and  _153
REMARK   68  A    between atoms: _155  and  _157
REMARK   69  A    between atoms: _157  and  _158
REMARK   70  A    between atoms: _160  and  _162
REMARK   71  A    between atoms: _162  and  _163
REMARK   72  A    between atoms: _162  and  _165
REMARK   73  A    between atoms: _165  and  _166
REMARK   74  A    between atoms: _172  and  _174
REMARK   75  A    between atoms: _174  and  _175
REMARK   76  A    between atoms: _174  and  _177
REMARK   77  A    between atoms: _177  and  _178
REMARK   78  A    between atoms: _181  and  _183
REMARK   79  A    between atoms: _183  and  _184
REMARK   80  A    between atoms: _183  and  _186
REMARK   81  A    between atoms: _186  and  _187
REMARK   82  A    between atoms: _190  and  _192
REMARK   83  A    between atoms: _192  and  _193
REMARK   84  A    between atoms: _192  and  _195
REMARK   85  A    between atoms: _195  and  _196
REMARK   86  A    between atoms: _200  and  _201
REMARK   87  A    between atoms: _206  and  _208
REMARK   88  A    between atoms: _208  and  _209
REMARK   89  A    between atoms: _208  and  _211
REMARK   90  A    between atoms: _211  and  _212
REMARK   91  A    between atoms: _215  and  _217
REMARK   92  A    between atoms: _217  and  _218
REMARK   93  A    between atoms: _217  and  _220
REMARK   94  A    between atoms: _220  and  _221
REMARK   95  A    between atoms: _226  and  _228
REMARK   96  A    between atoms: _228  and  _229
REMARK   97  A    between atoms: _228  and  _231
REMARK   98  A    between atoms: _234  and  _236
REMARK   99  A    between atoms: _236  and  _237
REMARK  100  A    between atoms: _236  and  _239
REMARK  101  A    between atoms: _239  and  _240
REMARK  102  A    between atoms: _243  and  _245
REMARK  103  A    between atoms: _245  and  _246
REMARK  104  A    between atoms: _248  and  _250
REMARK  105  A    between atoms: _250  and  _251
REMARK  106  A    between atoms: _250  and  _253
REMARK  107  A    between atoms: _253  and  _254
REMARK  108  A    between atoms: _254  and  _255
REMARK  109  A    between atoms: _255  and  _256
REMARK  110  A    between atoms: _265  and  _267
REMARK  111  A    between atoms: _267  and  _268
REMARK  112  A    between atoms: _267  and  _270
REMARK  113  A    between atoms: _270  and  _271
REMARK  114  A    between atoms: _276  and  _278
REMARK  115  A    between atoms: _278  and  _279
REMARK  116  A    between atoms: _278  and  _281
REMARK  117  A    between atoms: _281  and  _282
REMARK  118  A    between atoms: _282  and  _283
REMARK  119  A    between atoms: _283  and  _284
REMARK  120  A    between atoms: _293  and  _295
REMARK  121  A    between atoms: _295  and  _296
REMARK  122  A    between atoms: _295  and  _298
REMARK  123  A    between atoms: _298  and  _299
REMARK  124  A    between atoms: _302  and  _304
REMARK  125  A    between atoms: _304  and  _305
REMARK  126  A    between atoms: _304  and  _307
REMARK  127  A    between atoms: _307  and  _308
REMARK  128  A    between atoms: _311  and  _313
REMARK  129  A    between atoms: _313  and  _314
REMARK  130  A    between atoms: _313  and  _316
REMARK  131  A    between atoms: _316  and  _317
REMARK  132  A    between atoms: _320  and  _322
REMARK  133  A    between atoms: _322  and  _323
REMARK  134  A    between atoms: _322  and  _325
REMARK  135  A    between atoms: _325  and  _326
REMARK  136  A    between atoms: _329  and  _331
REMARK  137  A    between atoms: _331  and  _332
REMARK  138  A    between atoms: _331  and  _334
REMARK  139  A    between atoms: _334  and  _335
REMARK  140  A    between atoms: _338  and  _340
REMARK  141  A    between atoms: _340  and  _341
REMARK  142  A    between atoms: _343  and  _345
REMARK  143  A    between atoms: _345  and  _346
REMARK  144  A    between atoms: _349  and  _351
REMARK  145  A    between atoms: _351  and  _352
REMARK  146  A    between atoms: _351  and  _354
REMARK  147  A    between atoms: _354  and  _355
REMARK  148  A    between atoms: _358  and  _360
REMARK  149  A    between atoms: _360  and  _361
REMARK  150  A    between atoms: _360  and  _363
REMARK  151  A    between atoms: _363  and  _364
REMARK  152  A    between atoms: _367  and  _369
REMARK  153  A    between atoms: _369  and  _370
REMARK  154  A    between atoms: _369  and  _372
REMARK  155  A    between atoms: _372  and  _373
REMARK  156  A    between atoms: _376  and  _378
REMARK  157  A    between atoms: _378  and  _379
REMARK  158  A    between atoms: _378  and  _381
REMARK  159  A    between atoms: _384  and  _386
REMARK  160  A    between atoms: _386  and  _387
REMARK  161  A    between atoms: _386  and  _389
REMARK  162  A    between atoms: _389  and  _390
REMARK  163  A    between atoms: _390  and  _391
REMARK  164  A    between atoms: _391  and  _392
REMARK  165  A    between atoms: _392  and  _393
REMARK  166  A    between atoms: _397  and  _399
REMARK  167  A    between atoms: _399  and  _400
REMARK  168  A    between atoms: _399  and  _402
REMARK  169  A    between atoms: _402  and  _403
REMARK  170  A    between atoms: _403  and  _404
REMARK  171  A    between atoms: _406  and  _408
REMARK  172  A    between atoms: _408  and  _409
REMARK  173  A    between atoms: _408  and  _411
REMARK  174  A    between atoms: _411  and  _412
REMARK  175  A    between atoms: _415  and  _417
REMARK  176  A    between atoms: _417  and  _418
REMARK  177  A    between atoms: _420  and  _422
REMARK  178  A    between atoms: _422  and  _423
REMARK  179  A    between atoms: _425  and  _427
REMARK  180  A    between atoms: _427  and  _428
REMARK  181  A    between atoms: _427  and  _430
REMARK  182  A    between atoms: _430  and  _431
REMARK  183  A    between atoms: _434  and  _436
REMARK  184  A    between atoms: _436  and  _437
REMARK  185  A    between atoms: _439  and  _441
REMARK  186  A    between atoms: _441  and  _442
REMARK  187  A    between atoms: _444  and  _446
REMARK  188  A    between atoms: _446  and  _447
REMARK  189  A    between atoms: _446  and  _449
REMARK  190  A    between atoms: _449  and  _450
REMARK  191  A    between atoms: _456  and  _458
REMARK  192  A    between atoms: _458  and  _459
REMARK  193  A    between atoms: _458  and  _461
REMARK  194  A    between atoms: _461  and  _462
REMARK  195  A    between atoms: _465  and  _467
REMARK  196  A    between atoms: _467  and  _468
REMARK  197  A    between atoms: _467  and  _470
REMARK  198  A    between atoms: _473  and  _475
REMARK  199  A    between atoms: _475  and  _476
REMARK  200  A    between atoms: _475  and  _478
REMARK  201  A    between atoms: _478  and  _479
REMARK  202  A    between atoms: _482  and  _484
REMARK  203  A    between atoms: _484  and  _485
REMARK  204  A    between atoms: _484  and  _487
REMARK  205  A    between atoms: _485  and  _486
REMARK  206  A    between atoms: _485  and  _491
REMARK  207  A    between atoms: _487  and  _488
REMARK  208  A    between atoms: _492  and  _493
REMARK  209  A    between atoms: _498  and  _500
REMARK  210  A    between atoms: _500  and  _501
REMARK  211  A    between atoms: _500  and  _503
REMARK  212  A    between atoms: _503  and  _504
REMARK  213  A    between atoms: _507  and  _509
REMARK  214  A    between atoms: _509  and  _510
REMARK  215  A    between atoms: _509  and  _512
REMARK  216  A    between atoms: _512  and  _513
REMARK  217  A    between atoms: _518  and  _520
REMARK  218  A    between atoms: _520  and  _521
REMARK  219  A    between atoms: _520  and  _523
REMARK  220  A    between atoms: _526  and  _528
REMARK  221  A    between atoms: _528  and  _529
REMARK  222  A    between atoms: _528  and  _531
REMARK  223  A    between atoms: _531  and  _532
REMARK  224  A    between atoms: _535  and  _537
REMARK  225  A    between atoms: _537  and  _538
REMARK  226  A    between atoms: _540  and  _542
REMARK  227  A    between atoms: _542  and  _543
REMARK  228  A    between atoms: _542  and  _545
REMARK  229  A    between atoms: _545  and  _546
REMARK  230  A    between atoms: _546  and  _547
REMARK  231  A    between atoms: _547  and  _548
REMARK                            x       y       z     vdW  Elec       q    Type
REMARK                         _______ _______ _______ _____ _____    ______ ____
ROOT
ATOM      1  O   HOH     1       8.918  28.649   2.081  0.00  0.00    +0.000 OA
ENDROOT
TORSDOF 0
REMARK  Name = ../refined-set-2016/4cps/4cps_pocket.pdb
REMARK  231 active torsions:
REMARK  status: ('A' for Active; 'I' for Inactive)
REMARK    1  A    between atoms: _1  and  _3
REMARK    2  A    between atoms: _3  and  _4
REMARK    3  A    between atoms: _3  and  _6
REMARK    4  A    between atoms: _6  and  _7
REMARK    5  A    between atoms: _7  and  _8
REMARK    6  A    between atoms: _8  and  _9
REMARK    7  A    between atoms: _18  and  _20
REMARK    8  A    between atoms: _20  and  _21
REMARK    9  A    between atoms: _20  and  _23
REMARK   10  A    between atoms: _23  and  _24
REMARK   11  A    between atoms: _27  and  _29
REMARK   12  A    between atoms: _29  and  _30
REMARK   13  A    between atoms: _29  and  _32
REMARK   14  A    between atoms: _32  and  _33
REMARK   15  A    between atoms: _36  and  _38
REMARK   16  A    between atoms: _38  and  _39
REMARK   17  A    between atoms: _38  and  _41
REMARK   18  A    between atoms: _41  and  _42
REMARK   19  A    between atoms: _45  and  _47
REMARK   20  A    between atoms: _47  and  _48
REMARK   21  A    between atoms: _47  and  _50
REMARK   22  A    between atoms: _50  and  _51
REMARK   23  A    between atoms: _54  and  _56
REMARK   24  A    between atoms: _56  and  _57
REMARK   25  A    between atoms: _59  and  _61
REMARK   26  A    between atoms: _61  and  _62
REMARK   27  A    between atoms: _65  and  _67
REMARK   28  A    between atoms: _67  and  _68
REMARK   29  A    between atoms: _67  and  _70
REMARK   30  A    between atoms: _70  and  _71
REMARK   31  A    between atoms: _74  and  _76
REMARK   32  A    between atoms: _76  and  _77
REMARK   33  A    between atoms: _76  and  _79
REMARK   34  A    between atoms: _79  and  _80
REMARK   35  A    between atoms: _83  and  _85
REMARK   36  A    between atoms: _85  and  _86
REMARK   37  A    between atoms: _85  and  _88
REMARK   38  A    between atoms: _88  and  _89
REMARK   39  A    between atoms: _92  and  _94
REMARK   40  A    between atoms: _94  and  _95
REMARK   41  A    between atoms: _94  and  _97
REMARK   42  A    between atoms: _100  and  _102
REMARK   43  A    between atoms: _102  and  _103
REMARK   44  A    between atoms: _102  and  _105
REMARK   45  A    between atoms: _105  and  _106
REMARK   46  A    between atoms: _106  and  _107
REMARK   47  A    between atoms: _107  and  _108
REMARK   48  A    between atoms: _108  and  _109
REMARK   49  A    between atoms: _113  and  _115
REMARK   50  A    between atoms: _115  and  _116
REMARK   51  A    between atoms: _115  and  _118
REMARK   52  A    between atoms: _118  and  _119
REMARK   53  A    between atoms: _119  and  _120
REMARK   54  A    between atoms: _122  and  _124
REMARK   55  A    between atoms: _124  and  _125
REMARK   56  A    between atoms: _124  and  _127
REMARK   57  A    between atoms: _127  and  _128
REMARK   58  A    between atoms: _131  and  _133
REMARK   59  A    between atoms: _133  and  _134
REMARK   60  A    between atoms: _136  and  _138
REMARK   61  A    between atoms: _138  and  _139
REMARK   62  A    between atoms: _141  and  _143
REMARK   63  A    between atoms: _143  and  _144
REMARK   64  A    between atoms: _143  and  _146
REMARK   65  A    between atoms: _146  and  _147
REMARK   66  A    between atoms: _150  and  _152
REMARK   67  A    between atoms: _152  and  _153
REMARK   68  A    between atoms: _155  and  _157
REMARK   69  A    between atoms: _157  and  _158
REMARK   70  A    between atoms: _160  and  _162
REMARK   71  A    between atoms: _162  and  _163
REMARK   72  A    between atoms: _162  and  _165
REMARK   73  A    between atoms: _165  and  _166
REMARK   74  A    between atoms: _172  and  _174
REMARK   75  A    between atoms: _174  and  _175
REMARK   76  A    between atoms: _174  and  _177
REMARK   77  A    between atoms: _177  and  _178
REMARK   78  A    between atoms: _181  and  _183
REMARK   79  A    between atoms: _183  and  _184
REMARK   80  A    between atoms: _183  and  _186
REMARK   81  A    between atoms: _186  and  _187
REMARK   82  A    between atoms: _190  and  _192
REMARK   83  A    between atoms: _192  and  _193
REMARK   84  A    between atoms: _192  and  _195
REMARK   85  A    between atoms: _195  and  _196
REMARK   86  A    between atoms: _200  and  _201
REMARK   87  A    between atoms: _206  and  _208
REMARK   88  A    between atoms: _208  and  _209
REMARK   89  A    between atoms: _208  and  _211
REMARK   90  A    between atoms: _211  and  _212
REMARK   91  A    between atoms: _215  and  _217
REMARK   92  A    between atoms: _217  and  _218
REMARK   93  A    between atoms: _217  and  _220
REMARK   94  A    between atoms: _220  and  _221
REMARK   95  A    between atoms: _226  and  _228
REMARK   96  A    between atoms: _228  and  _229
REMARK   97  A    between atoms: _228  and  _231
REMARK   98  A    between atoms: _234  and  _236
REMARK   99  A    between atoms: _236  and  _237
REMARK  100  A    between atoms: _236  and  _239
REMARK  101  A    between atoms: _239  and  _240
REMARK  102  A    between atoms: _243  and  _245
REMARK  103  A    between atoms: _245  and  _246
REMARK  104  A    between atoms: _248  and  _250
REMARK  105  A    between atoms: _250  and  _251
REMARK  106  A    between atoms: _250  and  _253
REMARK  107  A    between atoms: _253  and  _254
REMARK  108  A    between atoms: _254  and  _255
REMARK  109  A    between atoms: _255  and  _256
REMARK  110  A    between atoms: _265  and  _267
REMARK  111  A    between atoms: _267  and  _268
REMARK  112  A    between atoms: _267  and  _270
REMARK  113  A    between atoms: _270  and  _271
REMARK  114  A    between atoms: _276  and  _278
REMARK  115  A    between atoms: _278  and  _279
REMARK  116  A    between atoms: _278  and  _281
REMARK  117  A    between atoms: _281  and  _282
REMARK  118  A    between atoms: _282  and  _283
REMARK  119  A    between atoms: _283  and  _284
REMARK  120  A    between atoms: _293  and  _295
REMARK  121  A    between atoms: _295  and  _296
REMARK  122  A    between atoms: _295  and  _298
REMARK  123  A    between atoms: _298  and  _299
REMARK  124  A    between atoms: _302  and  _304
REMARK  125  A    between atoms: _304  and  _305
REMARK  126  A    between atoms: _304  and  _307
REMARK  127  A    between atoms: _307  and  _308
REMARK  128  A    between atoms: _311  and  _313
REMARK  129  A    between atoms: _313  and  _314
REMARK  130  A    between atoms: _313  and  _316
REMARK  131  A    between atoms: _316  and  _317
REMARK  132  A    between atoms: _320  and  _322
REMARK  133  A    between atoms: _322  and  _323
REMARK  134  A    between atoms: _322  and  _325
REMARK  135  A    between atoms: _325  and  _326
REMARK  136  A    between atoms: _329  and  _331
REMARK  137  A    between atoms: _331  and  _332
REMARK  138  A    between atoms: _331  and  _334
REMARK  139  A    between atoms: _334  and  _335
REMARK  140  A    between atoms: _338  and  _340
REMARK  141  A    between atoms: _340  and  _341
REMARK  142  A    between atoms: _343  and  _345
REMARK  143  A    between atoms: _345  and  _346
REMARK  144  A    between atoms: _349  and  _351
REMARK  145  A    between atoms: _351  and  _352
REMARK  146  A    between atoms: _351  and  _354
REMARK  147  A    between atoms: _354  and  _355
REMARK  148  A    between atoms: _358  and  _360
REMARK  149  A    between atoms: _360  and  _361
REMARK  150  A    between atoms: _360  and  _363
REMARK  151  A    between atoms: _363  and  _364
REMARK  152  A    between atoms: _367  and  _369
REMARK  153  A    between atoms: _369  and  _370
REMARK  154  A    between atoms: _369  and  _372
REMARK  155  A    between atoms: _372  and  _373
REMARK  156  A    between atoms: _376  and  _378
REMARK  157  A    between atoms: _378  and  _379
REMARK  158  A    between atoms: _378  and  _381
REMARK  159  A    between atoms: _384  and  _386
REMARK  160  A    between atoms: _386  and  _387
REMARK  161  A    between atoms: _386  and  _389
REMARK  162  A    between atoms: _389  and  _390
REMARK  163  A    between atoms: _390  and  _391
REMARK  164  A    between atoms: _391  and  _392
REMARK  165  A    between atoms: _392  and  _393
REMARK  166  A    between atoms: _397  and  _399
REMARK  167  A    between atoms: _399  and  _400
REMARK  168  A    between atoms: _399  and  _402
REMARK  169  A    between atoms: _402  and  _403
REMARK  170  A    between atoms: _403  and  _404
REMARK  171  A    between atoms: _406  and  _408
REMARK  172  A    between atoms: _408  and  _409
REMARK  173  A    between atoms: _408  and  _411
REMARK  174  A    between atoms: _411  and  _412
REMARK  175  A    between atoms: _415  and  _417
REMARK  176  A    between atoms: _417  and  _418
REMARK  177  A    between atoms: _420  and  _422
REMARK  178  A    between atoms: _422  and  _423
REMARK  179  A    between atoms: _425  and  _427
REMARK  180  A    between atoms: _427  and  _428
REMARK  181  A    between atoms: _427  and  _430
REMARK  182  A    between atoms: _430  and  _431
REMARK  183  A    between atoms: _434  and  _436
REMARK  184  A    between atoms: _436  and  _437
REMARK  185  A    between atoms: _439  and  _441
REMARK  186  A    between atoms: _441  and  _442
REMARK  187  A    between atoms: _444  and  _446
REMARK  188  A    between atoms: _446  and  _447
REMARK  189  A    between atoms: _446  and  _449
REMARK  190  A    between atoms: _449  and  _450
REMARK  191  A    between atoms: _456  and  _458
REMARK  192  A    between atoms: _458  and  _459
REMARK  193  A    between atoms: _458  and  _461
REMARK  194  A    between atoms: _461  and  _462
REMARK  195  A    between atoms: _465  and  _467
REMARK  196  A    between atoms: _467  and  _468
REMARK  197  A    between atoms: _467  and  _470
REMARK  198  A    between atoms: _473  and  _475
REMARK  199  A    between atoms: _475  and  _476
REMARK  200  A    between atoms: _475  and  _478
REMARK  201  A    between atoms: _478  and  _479
REMARK  202  A    between atoms: _482  and  _484
REMARK  203  A    between atoms: _484  and  _485
REMARK  204  A    between atoms: _484  and  _487
REMARK  205  A    between atoms: _485  and  _486
REMARK  206  A    between atoms: _485  and  _491
REMARK  207  A    between atoms: _487  and  _488
REMARK  208  A    between atoms: _492  and  _493
REMARK  209  A    between atoms: _498  and  _500
REMARK  210  A    between atoms: _500  and  _501
REMARK  211  A    between atoms: _500  and  _503
REMARK  212  A    between atoms: _503  and  _504
REMARK  213  A    between atoms: _507  and  _509
REMARK  214  A    between atoms: _509  and  _510
REMARK  215  A    between atoms: _509  and  _512
REMARK  216  A    between atoms: _512  and  _513
REMARK  217  A    between atoms: _518  and  _520
REMARK  218  A    between atoms: _520  and  _521
REMARK  219  A    between atoms: _520  and  _523
REMARK  220  A    between atoms: _526  and  _528
REMARK  221  A    between atoms: _528  and  _529
REMARK  222  A    between atoms: _528  and  _531
REMARK  223  A    between atoms: _531  and  _532
REMARK  224  A    between atoms: _535  and  _537
REMARK  225  A    between atoms: _537  and  _538
REMARK  226  A    between atoms: _540  and  _542
REMARK  227  A    between atoms: _542  and  _543
REMARK  228  A    between atoms: _542  and  _545
REMARK  229  A    between atoms: _545  and  _546
REMARK  230  A    between atoms: _546  and  _547
REMARK  231  A    between atoms: _547  and  _548
REMARK                            x       y       z     vdW  Elec       q    Type
REMARK                         _______ _______ _______ _____ _____    ______ ____
ROOT
ATOM      1  O   HOH     1       8.027  35.426   5.719  0.00  0.00    +0.000 OA
ENDROOT
TORSDOF 0
REMARK  Name = ../refined-set-2016/4cps/4cps_pocket.pdb
REMARK  231 active torsions:
REMARK  status: ('A' for Active; 'I' for Inactive)
REMARK    1  A    between atoms: _1  and  _3
REMARK    2  A    between atoms: _3  and  _4
REMARK    3  A    between atoms: _3  and  _6
REMARK    4  A    between atoms: _6  and  _7
REMARK    5  A    between atoms: _7  and  _8
REMARK    6  A    between atoms: _8  and  _9
REMARK    7  A    between atoms: _18  and  _20
REMARK    8  A    between atoms: _20  and  _21
REMARK    9  A    between atoms: _20  and  _23
REMARK   10  A    between atoms: _23  and  _24
REMARK   11  A    between atoms: _27  and  _29
REMARK   12  A    between atoms: _29  and  _30
REMARK   13  A    between atoms: _29  and  _32
REMARK   14  A    between atoms: _32  and  _33
REMARK   15  A    between atoms: _36  and  _38
REMARK   16  A    between atoms: _38  and  _39
REMARK   17  A    between atoms: _38  and  _41
REMARK   18  A    between atoms: _41  and  _42
REMARK   19  A    between atoms: _45  and  _47
REMARK   20  A    between atoms: _47  and  _48
REMARK   21  A    between atoms: _47  and  _50
REMARK   22  A    between atoms: _50  and  _51
REMARK   23  A    between atoms: _54  and  _56
REMARK   24  A    between atoms: _56  and  _57
REMARK   25  A    between atoms: _59  and  _61
REMARK   26  A    between atoms: _61  and  _62
REMARK   27  A    between atoms: _65  and  _67
REMARK   28  A    between atoms: _67  and  _68
REMARK   29  A    between atoms: _67  and  _70
REMARK   30  A    between atoms: _70  and  _71
REMARK   31  A    between atoms: _74  and  _76
REMARK   32  A    between atoms: _76  and  _77
REMARK   33  A    between atoms: _76  and  _79
REMARK   34  A    between atoms: _79  and  _80
REMARK   35  A    between atoms: _83  and  _85
REMARK   36  A    between atoms: _85  and  _86
REMARK   37  A    between atoms: _85  and  _88
REMARK   38  A    between atoms: _88  and  _89
REMARK   39  A    between atoms: _92  and  _94
REMARK   40  A    between atoms: _94  and  _95
REMARK   41  A    between atoms: _94  and  _97
REMARK   42  A    between atoms: _100  and  _102
REMARK   43  A    between atoms: _102  and  _103
REMARK   44  A    between atoms: _102  and  _105
REMARK   45  A    between atoms: _105  and  _106
REMARK   46  A    between atoms: _106  and  _107
REMARK   47  A    between atoms: _107  and  _108
REMARK   48  A    between atoms: _108  and  _109
REMARK   49  A    between atoms: _113  and  _115
REMARK   50  A    between atoms: _115  and  _116
REMARK   51  A    between atoms: _115  and  _118
REMARK   52  A    between atoms: _118  and  _119
REMARK   53  A    between atoms: _119  and  _120
REMARK   54  A    between atoms: _122  and  _124
REMARK   55  A    between atoms: _124  and  _125
REMARK   56  A    between atoms: _124  and  _127
REMARK   57  A    between atoms: _127  and  _128
REMARK   58  A    between atoms: _131  and  _133
REMARK   59  A    between atoms: _133  and  _134
REMARK   60  A    between atoms: _136  and  _138
REMARK   61  A    between atoms: _138  and  _139
REMARK   62  A    between atoms: _141  and  _143
REMARK   63  A    between atoms: _143  and  _144
REMARK   64  A    between atoms: _143  and  _146
REMARK   65  A    between atoms: _146  and  _147
REMARK   66  A    between atoms: _150  and  _152
REMARK   67  A    between atoms: _152  and  _153
REMARK   68  A    between atoms: _155  and  _157
REMARK   69  A    between atoms: _157  and  _158
REMARK   70  A    between atoms: _160  and  _162
REMARK   71  A    between atoms: _162  and  _163
REMARK   72  A    between atoms: _162  and  _165
REMARK   73  A    between atoms: _165  and  _166
REMARK   74  A    between atoms: _172  and  _174
REMARK   75  A    between atoms: _174  and  _175
REMARK   76  A    between atoms: _174  and  _177
REMARK   77  A    between atoms: _177  and  _178
REMARK   78  A    between atoms: _181  and  _183
REMARK   79  A    between atoms: _183  and  _184
REMARK   80  A    between atoms: _183  and  _186
REMARK   81  A    between atoms: _186  and  _187
REMARK   82  A    between atoms: _190  and  _192
REMARK   83  A    between atoms: _192  and  _193
REMARK   84  A    between atoms: _192  and  _195
REMARK   85  A    between atoms: _195  and  _196
REMARK   86  A    between atoms: _200  and  _201
REMARK   87  A    between atoms: _206  and  _208
REMARK   88  A    between atoms: _208  and  _209
REMARK   89  A    between atoms: _208  and  _211
REMARK   90  A    between atoms: _211  and  _212
REMARK   91  A    between atoms: _215  and  _217
REMARK   92  A    between atoms: _217  and  _218
REMARK   93  A    between atoms: _217  and  _220
REMARK   94  A    between atoms: _220  and  _221
REMARK   95  A    between atoms: _226  and  _228
REMARK   96  A    between atoms: _228  and  _229
REMARK   97  A    between atoms: _228  and  _231
REMARK   98  A    between atoms: _234  and  _236
REMARK   99  A    between atoms: _236  and  _237
REMARK  100  A    between atoms: _236  and  _239
REMARK  101  A    between atoms: _239  and  _240
REMARK  102  A    between atoms: _243  and  _245
REMARK  103  A    between atoms: _245  and  _246
REMARK  104  A    between atoms: _248  and  _250
REMARK  105  A    between atoms: _250  and  _251
REMARK  106  A    between atoms: _250  and  _253
REMARK  107  A    between atoms: _253  and  _254
REMARK  108  A    between atoms: _254  and  _255
REMARK  109  A    between atoms: _255  and  _256
REMARK  110  A    between atoms: _265  and  _267
REMARK  111  A    between atoms: _267  and  _268
REMARK  112  A    between atoms: _267  and  _270
REMARK  113  A    between atoms: _270  and  _271
REMARK  114  A    between atoms: _276  and  _278
REMARK  115  A    between atoms: _278  and  _279
REMARK  116  A    between atoms: _278  and  _281
REMARK  117  A    between atoms: _281  and  _282
REMARK  118  A    between atoms: _282  and  _283
REMARK  119  A    between atoms: _283  and  _284
REMARK  120  A    between atoms: _293  and  _295
REMARK  121  A    between atoms: _295  and  _296
REMARK  122  A    between atoms: _295  and  _298
REMARK  123  A    between atoms: _298  and  _299
REMARK  124  A    between atoms: _302  and  _304
REMARK  125  A    between atoms: _304  and  _305
REMARK  126  A    between atoms: _304  and  _307
REMARK  127  A    between atoms: _307  and  _308
REMARK  128  A    between atoms: _311  and  _313
REMARK  129  A    between atoms: _313  and  _314
REMARK  130  A    between atoms: _313  and  _316
REMARK  131  A    between atoms: _316  and  _317
REMARK  132  A    between atoms: _320  and  _322
REMARK  133  A    between atoms: _322  and  _323
REMARK  134  A    between atoms: _322  and  _325
REMARK  135  A    between atoms: _325  and  _326
REMARK  136  A    between atoms: _329  and  _331
REMARK  137  A    between atoms: _331  and  _332
REMARK  138  A    between atoms: _331  and  _334
REMARK  139  A    between atoms: _334  and  _335
REMARK  140  A    between atoms: _338  and  _340
REMARK  141  A    between atoms: _340  and  _341
REMARK  142  A    between atoms: _343  and  _345
REMARK  143  A    between atoms: _345  and  _346
REMARK  144  A    between atoms: _349  and  _351
REMARK  145  A    between atoms: _351  and  _352
REMARK  146  A    between atoms: _351  and  _354
REMARK  147  A    between atoms: _354  and  _355
REMARK  148  A    between atoms: _358  and  _360
REMARK  149  A    between atoms: _360  and  _361
REMARK  150  A    between atoms: _360  and  _363
REMARK  151  A    between atoms: _363  and  _364
REMARK  152  A    between atoms: _367  and  _369
REMARK  153  A    between atoms: _369  and  _370
REMARK  154  A    between atoms: _369  and  _372
REMARK  155  A    between atoms: _372  and  _373
REMARK  156  A    between atoms: _376  and  _378
REMARK  157  A    between atoms: _378  and  _379
REMARK  158  A    between atoms: _378  and  _381
REMARK  159  A    between atoms: _384  and  _386
REMARK  160  A    between atoms: _386  and  _387
REMARK  161  A    between atoms: _386  and  _389
REMARK  162  A    between atoms: _389  and  _390
REMARK  163  A    between atoms: _390  and  _391
REMARK  164  A    between atoms: _391  and  _392
REMARK  165  A    between atoms: _392  and  _393
REMARK  166  A    between atoms: _397  and  _399
REMARK  167  A    between atoms: _399  and  _400
REMARK  168  A    between atoms: _399  and  _402
REMARK  169  A    between atoms: _402  and  _403
REMARK  170  A    between atoms: _403  and  _404
REMARK  171  A    between atoms: _406  and  _408
REMARK  172  A    between atoms: _408  and  _409
REMARK  173  A    between atoms: _408  and  _411
REMARK  174  A    between atoms: _411  and  _412
REMARK  175  A    between atoms: _415  and  _417
REMARK  176  A    between atoms: _417  and  _418
REMARK  177  A    between atoms: _420  and  _422
REMARK  178  A    between atoms: _422  and  _423
REMARK  179  A    between atoms: _425  and  _427
REMARK  180  A    between atoms: _427  and  _428
REMARK  181  A    between atoms: _427  and  _430
REMARK  182  A    between atoms: _430  and  _431
REMARK  183  A    between atoms: _434  and  _436
REMARK  184  A    between atoms: _436  and  _437
REMARK  185  A    between atoms: _439  and  _441
REMARK  186  A    between atoms: _441  and  _442
REMARK  187  A    between atoms: _444  and  _446
REMARK  188  A    between atoms: _446  and  _447
REMARK  189  A    between atoms: _446  and  _449
REMARK  190  A    between atoms: _449  and  _450
REMARK  191  A    between atoms: _456  and  _458
REMARK  192  A    between atoms: _458  and  _459
REMARK  193  A    between atoms: _458  and  _461
REMARK  194  A    between atoms: _461  and  _462
REMARK  195  A    between atoms: _465  and  _467
REMARK  196  A    between atoms: _467  and  _468
REMARK  197  A    between atoms: _467  and  _470
REMARK  198  A    between atoms: _473  and  _475
REMARK  199  A    between atoms: _475  and  _476
REMARK  200  A    between atoms: _475  and  _478
REMARK  201  A    between atoms: _478  and  _479
REMARK  202  A    between atoms: _482  and  _484
REMARK  203  A    between atoms: _484  and  _485
REMARK  204  A    between atoms: _484  and  _487
REMARK  205  A    between atoms: _485  and  _486
REMARK  206  A    between atoms: _485  and  _491
REMARK  207  A    between atoms: _487  and  _488
REMARK  208  A    between atoms: _492  and  _493
REMARK  209  A    between atoms: _498  and  _500
REMARK  210  A    between atoms: _500  and  _501
REMARK  211  A    between atoms: _500  and  _503
REMARK  212  A    between atoms: _503  and  _504
REMARK  213  A    between atoms: _507  and  _509
REMARK  214  A    between atoms: _509  and  _510
REMARK  215  A    between atoms: _509  and  _512
REMARK  216  A    between atoms: _512  and  _513
REMARK  217  A    between atoms: _518  and  _520
REMARK  218  A    between atoms: _520  and  _521
REMARK  219  A    between atoms: _520  and  _523
REMARK  220  A    between atoms: _526  and  _528
REMARK  221  A    between atoms: _528  and  _529
REMARK  222  A    between atoms: _528  and  _531
REMARK  223  A    between atoms: _531  and  _532
REMARK  224  A    between atoms: _535  and  _537
REMARK  225  A    between atoms: _537  and  _538
REMARK  226  A    between atoms: _540  and  _542
REMARK  227  A    between atoms: _542  and  _543
REMARK  228  A    between atoms: _542  and  _545
REMARK  229  A    between atoms: _545  and  _546
REMARK  230  A    between atoms: _546  and  _547
REMARK  231  A    between atoms: _547  and  _548
REMARK                            x       y       z     vdW  Elec       q    Type
REMARK                         _______ _______ _______ _____ _____    ______ ____
ROOT
ATOM      1  O   HOH     1       3.749  30.206   6.113  0.00  0.00    +0.000 OA
ENDROOT
TORSDOF 0
REMARK  Name = ../refined-set-2016/4cps/4cps_pocket.pdb
REMARK  231 active torsions:
REMARK  status: ('A' for Active; 'I' for Inactive)
REMARK    1  A    between atoms: _1  and  _3
REMARK    2  A    between atoms: _3  and  _4
REMARK    3  A    between atoms: _3  and  _6
REMARK    4  A    between atoms: _6  and  _7
REMARK    5  A    between atoms: _7  and  _8
REMARK    6  A    between atoms: _8  and  _9
REMARK    7  A    between atoms: _18  and  _20
REMARK    8  A    between atoms: _20  and  _21
REMARK    9  A    between atoms: _20  and  _23
REMARK   10  A    between atoms: _23  and  _24
REMARK   11  A    between atoms: _27  and  _29
REMARK   12  A    between atoms: _29  and  _30
REMARK   13  A    between atoms: _29  and  _32
REMARK   14  A    between atoms: _32  and  _33
REMARK   15  A    between atoms: _36  and  _38
REMARK   16  A    between atoms: _38  and  _39
REMARK   17  A    between atoms: _38  and  _41
REMARK   18  A    between atoms: _41  and  _42
REMARK   19  A    between atoms: _45  and  _47
REMARK   20  A    between atoms: _47  and  _48
REMARK   21  A    between atoms: _47  and  _50
REMARK   22  A    between atoms: _50  and  _51
REMARK   23  A    between atoms: _54  and  _56
REMARK   24  A    between atoms: _56  and  _57
REMARK   25  A    between atoms: _59  and  _61
REMARK   26  A    between atoms: _61  and  _62
REMARK   27  A    between atoms: _65  and  _67
REMARK   28  A    between atoms: _67  and  _68
REMARK   29  A    between atoms: _67  and  _70
REMARK   30  A    between atoms: _70  and  _71
REMARK   31  A    between atoms: _74  and  _76
REMARK   32  A    between atoms: _76  and  _77
REMARK   33  A    between atoms: _76  and  _79
REMARK   34  A    between atoms: _79  and  _80
REMARK   35  A    between atoms: _83  and  _85
REMARK   36  A    between atoms: _85  and  _86
REMARK   37  A    between atoms: _85  and  _88
REMARK   38  A    between atoms: _88  and  _89
REMARK   39  A    between atoms: _92  and  _94
REMARK   40  A    between atoms: _94  and  _95
REMARK   41  A    between atoms: _94  and  _97
REMARK   42  A    between atoms: _100  and  _102
REMARK   43  A    between atoms: _102  and  _103
REMARK   44  A    between atoms: _102  and  _105
REMARK   45  A    between atoms: _105  and  _106
REMARK   46  A    between atoms: _106  and  _107
REMARK   47  A    between atoms: _107  and  _108
REMARK   48  A    between atoms: _108  and  _109
REMARK   49  A    between atoms: _113  and  _115
REMARK   50  A    between atoms: _115  and  _116
REMARK   51  A    between atoms: _115  and  _118
REMARK   52  A    between atoms: _118  and  _119
REMARK   53  A    between atoms: _119  and  _120
REMARK   54  A    between atoms: _122  and  _124
REMARK   55  A    between atoms: _124  and  _125
REMARK   56  A    between atoms: _124  and  _127
REMARK   57  A    between atoms: _127  and  _128
REMARK   58  A    between atoms: _131  and  _133
REMARK   59  A    between atoms: _133  and  _134
REMARK   60  A    between atoms: _136  and  _138
REMARK   61  A    between atoms: _138  and  _139
REMARK   62  A    between atoms: _141  and  _143
REMARK   63  A    between atoms: _143  and  _144
REMARK   64  A    between atoms: _143  and  _146
REMARK   65  A    between atoms: _146  and  _147
REMARK   66  A    between atoms: _150  and  _152
REMARK   67  A    between atoms: _152  and  _153
REMARK   68  A    between atoms: _155  and  _157
REMARK   69  A    between atoms: _157  and  _158
REMARK   70  A    between atoms: _160  and  _162
REMARK   71  A    between atoms: _162  and  _163
REMARK   72  A    between atoms: _162  and  _165
REMARK   73  A    between atoms: _165  and  _166
REMARK   74  A    between atoms: _172  and  _174
REMARK   75  A    between atoms: _174  and  _175
REMARK   76  A    between atoms: _174  and  _177
REMARK   77  A    between atoms: _177  and  _178
REMARK   78  A    between atoms: _181  and  _183
REMARK   79  A    between atoms: _183  and  _184
REMARK   80  A    between atoms: _183  and  _186
REMARK   81  A    between atoms: _186  and  _187
REMARK   82  A    between atoms: _190  and  _192
REMARK   83  A    between atoms: _192  and  _193
REMARK   84  A    between atoms: _192  and  _195
REMARK   85  A    between atoms: _195  and  _196
REMARK   86  A    between atoms: _200  and  _201
REMARK   87  A    between atoms: _206  and  _208
REMARK   88  A    between atoms: _208  and  _209
REMARK   89  A    between atoms: _208  and  _211
REMARK   90  A    between atoms: _211  and  _212
REMARK   91  A    between atoms: _215  and  _217
REMARK   92  A    between atoms: _217  and  _218
REMARK   93  A    between atoms: _217  and  _220
REMARK   94  A    between atoms: _220  and  _221
REMARK   95  A    between atoms: _226  and  _228
REMARK   96  A    between atoms: _228  and  _229
REMARK   97  A    between atoms: _228  and  _231
REMARK   98  A    between atoms: _234  and  _236
REMARK   99  A    between atoms: _236  and  _237
REMARK  100  A    between atoms: _236  and  _239
REMARK  101  A    between atoms: _239  and  _240
REMARK  102  A    between atoms: _243  and  _245
REMARK  103  A    between atoms: _245  and  _246
REMARK  104  A    between atoms: _248  and  _250
REMARK  105  A    between atoms: _250  and  _251
REMARK  106  A    between atoms: _250  and  _253
REMARK  107  A    between atoms: _253  and  _254
REMARK  108  A    between atoms: _254  and  _255
REMARK  109  A    between atoms: _255  and  _256
REMARK  110  A    between atoms: _265  and  _267
REMARK  111  A    between atoms: _267  and  _268
REMARK  112  A    between atoms: _267  and  _270
REMARK  113  A    between atoms: _270  and  _271
REMARK  114  A    between atoms: _276  and  _278
REMARK  115  A    between atoms: _278  and  _279
REMARK  116  A    between atoms: _278  and  _281
REMARK  117  A    between atoms: _281  and  _282
REMARK  118  A    between atoms: _282  and  _283
REMARK  119  A    between atoms: _283  and  _284
REMARK  120  A    between atoms: _293  and  _295
REMARK  121  A    between atoms: _295  and  _296
REMARK  122  A    between atoms: _295  and  _298
REMARK  123  A    between atoms: _298  and  _299
REMARK  124  A    between atoms: _302  and  _304
REMARK  125  A    between atoms: _304  and  _305
REMARK  126  A    between atoms: _304  and  _307
REMARK  127  A    between atoms: _307  and  _308
REMARK  128  A    between atoms: _311  and  _313
REMARK  129  A    between atoms: _313  and  _314
REMARK  130  A    between atoms: _313  and  _316
REMARK  131  A    between atoms: _316  and  _317
REMARK  132  A    between atoms: _320  and  _322
REMARK  133  A    between atoms: _322  and  _323
REMARK  134  A    between atoms: _322  and  _325
REMARK  135  A    between atoms: _325  and  _326
REMARK  136  A    between atoms: _329  and  _331
REMARK  137  A    between atoms: _331  and  _332
REMARK  138  A    between atoms: _331  and  _334
REMARK  139  A    between atoms: _334  and  _335
REMARK  140  A    between atoms: _338  and  _340
REMARK  141  A    between atoms: _340  and  _341
REMARK  142  A    between atoms: _343  and  _345
REMARK  143  A    between atoms: _345  and  _346
REMARK  144  A    between atoms: _349  and  _351
REMARK  145  A    between atoms: _351  and  _352
REMARK  146  A    between atoms: _351  and  _354
REMARK  147  A    between atoms: _354  and  _355
REMARK  148  A    between atoms: _358  and  _360
REMARK  149  A    between atoms: _360  and  _361
REMARK  150  A    between atoms: _360  and  _363
REMARK  151  A    between atoms: _363  and  _364
REMARK  152  A    between atoms: _367  and  _369
REMARK  153  A    between atoms: _369  and  _370
REMARK  154  A    between atoms: _369  and  _372
REMARK  155  A    between atoms: _372  and  _373
REMARK  156  A    between atoms: _376  and  _378
REMARK  157  A    between atoms: _378  and  _379
REMARK  158  A    between atoms: _378  and  _381
REMARK  159  A    between atoms: _384  and  _386
REMARK  160  A    between atoms: _386  and  _387
REMARK  161  A    between atoms: _386  and  _389
REMARK  162  A    between atoms: _389  and  _390
REMARK  163  A    between atoms: _390  and  _391
REMARK  164  A    between atoms: _391  and  _392
REMARK  165  A    between atoms: _392  and  _393
REMARK  166  A    between atoms: _397  and  _399
REMARK  167  A    between atoms: _399  and  _400
REMARK  168  A    between atoms: _399  and  _402
REMARK  169  A    between atoms: _402  and  _403
REMARK  170  A    between atoms: _403  and  _404
REMARK  171  A    between atoms: _406  and  _408
REMARK  172  A    between atoms: _408  and  _409
REMARK  173  A    between atoms: _408  and  _411
REMARK  174  A    between atoms: _411  and  _412
REMARK  175  A    between atoms: _415  and  _417
REMARK  176  A    between atoms: _417  and  _418
REMARK  177  A    between atoms: _420  and  _422
REMARK  178  A    between atoms: _422  and  _423
REMARK  179  A    between atoms: _425  and  _427
REMARK  180  A    between atoms: _427  and  _428
REMARK  181  A    between atoms: _427  and  _430
REMARK  182  A    between atoms: _430  and  _431
REMARK  183  A    between atoms: _434  and  _436
REMARK  184  A    between atoms: _436  and  _437
REMARK  185  A    between atoms: _439  and  _441
REMARK  186  A    between atoms: _441  and  _442
REMARK  187  A    between atoms: _444  and  _446
REMARK  188  A    between atoms: _446  and  _447
REMARK  189  A    between atoms: _446  and  _449
REMARK  190  A    between atoms: _449  and  _450
REMARK  191  A    between atoms: _456  and  _458
REMARK  192  A    between atoms: _458  and  _459
REMARK  193  A    between atoms: _458  and  _461
REMARK  194  A    between atoms: _461  and  _462
REMARK  195  A    between atoms: _465  and  _467
REMARK  196  A    between atoms: _467  and  _468
REMARK  197  A    between atoms: _467  and  _470
REMARK  198  A    between atoms: _473  and  _475
REMARK  199  A    between atoms: _475  and  _476
REMARK  200  A    between atoms: _475  and  _478
REMARK  201  A    between atoms: _478  and  _479
REMARK  202  A    between atoms: _482  and  _484
REMARK  203  A    between atoms: _484  and  _485
REMARK  204  A    between atoms: _484  and  _487
REMARK  205  A    between atoms: _485  and  _486
REMARK  206  A    between atoms: _485  and  _491
REMARK  207  A    between atoms: _487  and  _488
REMARK  208  A    between atoms: _492  and  _493
REMARK  209  A    between atoms: _498  and  _500
REMARK  210  A    between atoms: _500  and  _501
REMARK  211  A    between atoms: _500  and  _503
REMARK  212  A    between atoms: _503  and  _504
REMARK  213  A    between atoms: _507  and  _509
REMARK  214  A    between atoms: _509  and  _510
REMARK  215  A    between atoms: _509  and  _512
REMARK  216  A    between atoms: _512  and  _513
REMARK  217  A    between atoms: _518  and  _520
REMARK  218  A    between atoms: _520  and  _521
REMARK  219  A    between atoms: _520  and  _523
REMARK  220  A    between atoms: _526  and  _528
REMARK  221  A    between atoms: _528  and  _529
REMARK  222  A    between atoms: _528  and  _531
REMARK  223  A    between atoms: _531  and  _532
REMARK  224  A    between atoms: _535  and  _537
REMARK  225  A    between atoms: _537  and  _538
REMARK  226  A    between atoms: _540  and  _542
REMARK  227  A    between atoms: _542  and  _543
REMARK  228  A    between atoms: _542  and  _545
REMARK  229  A    between atoms: _545  and  _546
REMARK  230  A    between atoms: _546  and  _547
REMARK  231  A    between atoms: _547  and  _548
REMARK                            x       y       z     vdW  Elec       q    Type
REMARK                         _______ _______ _______ _____ _____    ______ ____
ROOT
ATOM      1  O   HOH     1       6.855  34.276  10.534  0.00  0.00    +0.000 OA
ENDROOT
TORSDOF 0
REMARK  Name = ../refined-set-2016/4cps/4cps_pocket.pdb
REMARK  231 active torsions:
REMARK  status: ('A' for Active; 'I' for Inactive)
REMARK    1  A    between atoms: _1  and  _3
REMARK    2  A    between atoms: _3  and  _4
REMARK    3  A    between atoms: _3  and  _6
REMARK    4  A    between atoms: _6  and  _7
REMARK    5  A    between atoms: _7  and  _8
REMARK    6  A    between atoms: _8  and  _9
REMARK    7  A    between atoms: _18  and  _20
REMARK    8  A    between atoms: _20  and  _21
REMARK    9  A    between atoms: _20  and  _23
REMARK   10  A    between atoms: _23  and  _24
REMARK   11  A    between atoms: _27  and  _29
REMARK   12  A    between atoms: _29  and  _30
REMARK   13  A    between atoms: _29  and  _32
REMARK   14  A    between atoms: _32  and  _33
REMARK   15  A    between atoms: _36  and  _38
REMARK   16  A    between atoms: _38  and  _39
REMARK   17  A    between atoms: _38  and  _41
REMARK   18  A    between atoms: _41  and  _42
REMARK   19  A    between atoms: _45  and  _47
REMARK   20  A    between atoms: _47  and  _48
REMARK   21  A    between atoms: _47  and  _50
REMARK   22  A    between atoms: _50  and  _51
REMARK   23  A    between atoms: _54  and  _56
REMARK   24  A    between atoms: _56  and  _57
REMARK   25  A    between atoms: _59  and  _61
REMARK   26  A    between atoms: _61  and  _62
REMARK   27  A    between atoms: _65  and  _67
REMARK   28  A    between atoms: _67  and  _68
REMARK   29  A    between atoms: _67  and  _70
REMARK   30  A    between atoms: _70  and  _71
REMARK   31  A    between atoms: _74  and  _76
REMARK   32  A    between atoms: _76  and  _77
REMARK   33  A    between atoms: _76  and  _79
REMARK   34  A    between atoms: _79  and  _80
REMARK   35  A    between atoms: _83  and  _85
REMARK   36  A    between atoms: _85  and  _86
REMARK   37  A    between atoms: _85  and  _88
REMARK   38  A    between atoms: _88  and  _89
REMARK   39  A    between atoms: _92  and  _94
REMARK   40  A    between atoms: _94  and  _95
REMARK   41  A    between atoms: _94  and  _97
REMARK   42  A    between atoms: _100  and  _102
REMARK   43  A    between atoms: _102  and  _103
REMARK   44  A    between atoms: _102  and  _105
REMARK   45  A    between atoms: _105  and  _106
REMARK   46  A    between atoms: _106  and  _107
REMARK   47  A    between atoms: _107  and  _108
REMARK   48  A    between atoms: _108  and  _109
REMARK   49  A    between atoms: _113  and  _115
REMARK   50  A    between atoms: _115  and  _116
REMARK   51  A    between atoms: _115  and  _118
REMARK   52  A    between atoms: _118  and  _119
REMARK   53  A    between atoms: _119  and  _120
REMARK   54  A    between atoms: _122  and  _124
REMARK   55  A    between atoms: _124  and  _125
REMARK   56  A    between atoms: _124  and  _127
REMARK   57  A    between atoms: _127  and  _128
REMARK   58  A    between atoms: _131  and  _133
REMARK   59  A    between atoms: _133  and  _134
REMARK   60  A    between atoms: _136  and  _138
REMARK   61  A    between atoms: _138  and  _139
REMARK   62  A    between atoms: _141  and  _143
REMARK   63  A    between atoms: _143  and  _144
REMARK   64  A    between atoms: _143  and  _146
REMARK   65  A    between atoms: _146  and  _147
REMARK   66  A    between atoms: _150  and  _152
REMARK   67  A    between atoms: _152  and  _153
REMARK   68  A    between atoms: _155  and  _157
REMARK   69  A    between atoms: _157  and  _158
REMARK   70  A    between atoms: _160  and  _162
REMARK   71  A    between atoms: _162  and  _163
REMARK   72  A    between atoms: _162  and  _165
REMARK   73  A    between atoms: _165  and  _166
REMARK   74  A    between atoms: _172  and  _174
REMARK   75  A    between atoms: _174  and  _175
REMARK   76  A    between atoms: _174  and  _177
REMARK   77  A    between atoms: _177  and  _178
REMARK   78  A    between atoms: _181  and  _183
REMARK   79  A    between atoms: _183  and  _184
REMARK   80  A    between atoms: _183  and  _186
REMARK   81  A    between atoms: _186  and  _187
REMARK   82  A    between atoms: _190  and  _192
REMARK   83  A    between atoms: _192  and  _193
REMARK   84  A    between atoms: _192  and  _195
REMARK   85  A    between atoms: _195  and  _196
REMARK   86  A    between atoms: _200  and  _201
REMARK   87  A    between atoms: _206  and  _208
REMARK   88  A    between atoms: _208  and  _209
REMARK   89  A    between atoms: _208  and  _211
REMARK   90  A    between atoms: _211  and  _212
REMARK   91  A    between atoms: _215  and  _217
REMARK   92  A    between atoms: _217  and  _218
REMARK   93  A    between atoms: _217  and  _220
REMARK   94  A    between atoms: _220  and  _221
REMARK   95  A    between atoms: _226  and  _228
REMARK   96  A    between atoms: _228  and  _229
REMARK   97  A    between atoms: _228  and  _231
REMARK   98  A    between atoms: _234  and  _236
REMARK   99  A    between atoms: _236  and  _237
REMARK  100  A    between atoms: _236  and  _239
REMARK  101  A    between atoms: _239  and  _240
REMARK  102  A    between atoms: _243  and  _245
REMARK  103  A    between atoms: _245  and  _246
REMARK  104  A    between atoms: _248  and  _250
REMARK  105  A    between atoms: _250  and  _251
REMARK  106  A    between atoms: _250  and  _253
REMARK  107  A    between atoms: _253  and  _254
REMARK  108  A    between atoms: _254  and  _255
REMARK  109  A    between atoms: _255  and  _256
REMARK  110  A    between atoms: _265  and  _267
REMARK  111  A    between atoms: _267  and  _268
REMARK  112  A    between atoms: _267  and  _270
REMARK  113  A    between atoms: _270  and  _271
REMARK  114  A    between atoms: _276  and  _278
REMARK  115  A    between atoms: _278  and  _279
REMARK  116  A    between atoms: _278  and  _281
REMARK  117  A    between atoms: _281  and  _282
REMARK  118  A    between atoms: _282  and  _283
REMARK  119  A    between atoms: _283  and  _284
REMARK  120  A    between atoms: _293  and  _295
REMARK  121  A    between atoms: _295  and  _296
REMARK  122  A    between atoms: _295  and  _298
REMARK  123  A    between atoms: _298  and  _299
REMARK  124  A    between atoms: _302  and  _304
REMARK  125  A    between atoms: _304  and  _305
REMARK  126  A    between atoms: _304  and  _307
REMARK  127  A    between atoms: _307  and  _308
REMARK  128  A    between atoms: _311  and  _313
REMARK  129  A    between atoms: _313  and  _314
REMARK  130  A    between atoms: _313  and  _316
REMARK  131  A    between atoms: _316  and  _317
REMARK  132  A    between atoms: _320  and  _322
REMARK  133  A    between atoms: _322  and  _323
REMARK  134  A    between atoms: _322  and  _325
REMARK  135  A    between atoms: _325  and  _326
REMARK  136  A    between atoms: _329  and  _331
REMARK  137  A    between atoms: _331  and  _332
REMARK  138  A    between atoms: _331  and  _334
REMARK  139  A    between atoms: _334  and  _335
REMARK  140  A    between atoms: _338  and  _340
REMARK  141  A    between atoms: _340  and  _341
REMARK  142  A    between atoms: _343  and  _345
REMARK  143  A    between atoms: _345  and  _346
REMARK  144  A    between atoms: _349  and  _351
REMARK  145  A    between atoms: _351  and  _352
REMARK  146  A    between atoms: _351  and  _354
REMARK  147  A    between atoms: _354  and  _355
REMARK  148  A    between atoms: _358  and  _360
REMARK  149  A    between atoms: _360  and  _361
REMARK  150  A    between atoms: _360  and  _363
REMARK  151  A    between atoms: _363  and  _364
REMARK  152  A    between atoms: _367  and  _369
REMARK  153  A    between atoms: _369  and  _370
REMARK  154  A    between atoms: _369  and  _372
REMARK  155  A    between atoms: _372  and  _373
REMARK  156  A    between atoms: _376  and  _378
REMARK  157  A    between atoms: _378  and  _379
REMARK  158  A    between atoms: _378  and  _381
REMARK  159  A    between atoms: _384  and  _386
REMARK  160  A    between atoms: _386  and  _387
REMARK  161  A    between atoms: _386  and  _389
REMARK  162  A    between atoms: _389  and  _390
REMARK  163  A    between atoms: _390  and  _391
REMARK  164  A    between atoms: _391  and  _392
REMARK  165  A    between atoms: _392  and  _393
REMARK  166  A    between atoms: _397  and  _399
REMARK  167  A    between atoms: _399  and  _400
REMARK  168  A    between atoms: _399  and  _402
REMARK  169  A    between atoms: _402  and  _403
REMARK  170  A    between atoms: _403  and  _404
REMARK  171  A    between atoms: _406  and  _408
REMARK  172  A    between atoms: _408  and  _409
REMARK  173  A    between atoms: _408  and  _411
REMARK  174  A    between atoms: _411  and  _412
REMARK  175  A    between atoms: _415  and  _417
REMARK  176  A    between atoms: _417  and  _418
REMARK  177  A    between atoms: _420  and  _422
REMARK  178  A    between atoms: _422  and  _423
REMARK  179  A    between atoms: _425  and  _427
REMARK  180  A    between atoms: _427  and  _428
REMARK  181  A    between atoms: _427  and  _430
REMARK  182  A    between atoms: _430  and  _431
REMARK  183  A    between atoms: _434  and  _436
REMARK  184  A    between atoms: _436  and  _437
REMARK  185  A    between atoms: _439  and  _441
REMARK  186  A    between atoms: _441  and  _442
REMARK  187  A    between atoms: _444  and  _446
REMARK  188  A    between atoms: _446  and  _447
REMARK  189  A    between atoms: _446  and  _449
REMARK  190  A    between atoms: _449  and  _450
REMARK  191  A    between atoms: _456  and  _458
REMARK  192  A    between atoms: _458  and  _459
REMARK  193  A    between atoms: _458  and  _461
REMARK  194  A    between atoms: _461  and  _462
REMARK  195  A    between atoms: _465  and  _467
REMARK  196  A    between atoms: _467  and  _468
REMARK  197  A    between atoms: _467  and  _470
REMARK  198  A    between atoms: _473  and  _475
REMARK  199  A    between atoms: _475  and  _476
REMARK  200  A    between atoms: _475  and  _478
REMARK  201  A    between atoms: _478  and  _479
REMARK  202  A    between atoms: _482  and  _484
REMARK  203  A    between atoms: _484  and  _485
REMARK  204  A    between atoms: _484  and  _487
REMARK  205  A    between atoms: _485  and  _486
REMARK  206  A    between atoms: _485  and  _491
REMARK  207  A    between atoms: _487  and  _488
REMARK  208  A    between atoms: _492  and  _493
REMARK  209  A    between atoms: _498  and  _500
REMARK  210  A    between atoms: _500  and  _501
REMARK  211  A    between atoms: _500  and  _503
REMARK  212  A    between atoms: _503  and  _504
REMARK  213  A    between atoms: _507  and  _509
REMARK  214  A    between atoms: _509  and  _510
REMARK  215  A    between atoms: _509  and  _512
REMARK  216  A    between atoms: _512  and  _513
REMARK  217  A    between atoms: _518  and  _520
REMARK  218  A    between atoms: _520  and  _521
REMARK  219  A    between atoms: _520  and  _523
REMARK  220  A    between atoms: _526  and  _528
REMARK  221  A    between atoms: _528  and  _529
REMARK  222  A    between atoms: _528  and  _531
REMARK  223  A    between atoms: _531  and  _532
REMARK  224  A    between atoms: _535  and  _537
REMARK  225  A    between atoms: _537  and  _538
REMARK  226  A    between atoms: _540  and  _542
REMARK  227  A    between atoms: _542  and  _543
REMARK  228  A    between atoms: _542  and  _545
REMARK  229  A    between atoms: _545  and  _546
REMARK  230  A    between atoms: _546  and  _547
REMARK  231  A    between atoms: _547  and  _548
REMARK                            x       y       z     vdW  Elec       q    Type
REMARK                         _______ _______ _______ _____ _____    ______ ____
ROOT
ATOM      1  O   HOH     1       8.465  33.437  12.528  0.00  0.00    +0.000 OA
ENDROOT
TORSDOF 0
REMARK  Name = ../refined-set-2016/4cps/4cps_pocket.pdb
REMARK  231 active torsions:
REMARK  status: ('A' for Active; 'I' for Inactive)
REMARK    1  A    between atoms: _1  and  _3
REMARK    2  A    between atoms: _3  and  _4
REMARK    3  A    between atoms: _3  and  _6
REMARK    4  A    between atoms: _6  and  _7
REMARK    5  A    between atoms: _7  and  _8
REMARK    6  A    between atoms: _8  and  _9
REMARK    7  A    between atoms: _18  and  _20
REMARK    8  A    between atoms: _20  and  _21
REMARK    9  A    between atoms: _20  and  _23
REMARK   10  A    between atoms: _23  and  _24
REMARK   11  A    between atoms: _27  and  _29
REMARK   12  A    between atoms: _29  and  _30
REMARK   13  A    between atoms: _29  and  _32
REMARK   14  A    between atoms: _32  and  _33
REMARK   15  A    between atoms: _36  and  _38
REMARK   16  A    between atoms: _38  and  _39
REMARK   17  A    between atoms: _38  and  _41
REMARK   18  A    between atoms: _41  and  _42
REMARK   19  A    between atoms: _45  and  _47
REMARK   20  A    between atoms: _47  and  _48
REMARK   21  A    between atoms: _47  and  _50
REMARK   22  A    between atoms: _50  and  _51
REMARK   23  A    between atoms: _54  and  _56
REMARK   24  A    between atoms: _56  and  _57
REMARK   25  A    between atoms: _59  and  _61
REMARK   26  A    between atoms: _61  and  _62
REMARK   27  A    between atoms: _65  and  _67
REMARK   28  A    between atoms: _67  and  _68
REMARK   29  A    between atoms: _67  and  _70
REMARK   30  A    between atoms: _70  and  _71
REMARK   31  A    between atoms: _74  and  _76
REMARK   32  A    between atoms: _76  and  _77
REMARK   33  A    between atoms: _76  and  _79
REMARK   34  A    between atoms: _79  and  _80
REMARK   35  A    between atoms: _83  and  _85
REMARK   36  A    between atoms: _85  and  _86
REMARK   37  A    between atoms: _85  and  _88
REMARK   38  A    between atoms: _88  and  _89
REMARK   39  A    between atoms: _92  and  _94
REMARK   40  A    between atoms: _94  and  _95
REMARK   41  A    between atoms: _94  and  _97
REMARK   42  A    between atoms: _100  and  _102
REMARK   43  A    between atoms: _102  and  _103
REMARK   44  A    between atoms: _102  and  _105
REMARK   45  A    between atoms: _105  and  _106
REMARK   46  A    between atoms: _106  and  _107
REMARK   47  A    between atoms: _107  and  _108
REMARK   48  A    between atoms: _108  and  _109
REMARK   49  A    between atoms: _113  and  _115
REMARK   50  A    between atoms: _115  and  _116
REMARK   51  A    between atoms: _115  and  _118
REMARK   52  A    between atoms: _118  and  _119
REMARK   53  A    between atoms: _119  and  _120
REMARK   54  A    between atoms: _122  and  _124
REMARK   55  A    between atoms: _124  and  _125
REMARK   56  A    between atoms: _124  and  _127
REMARK   57  A    between atoms: _127  and  _128
REMARK   58  A    between atoms: _131  and  _133
REMARK   59  A    between atoms: _133  and  _134
REMARK   60  A    between atoms: _136  and  _138
REMARK   61  A    between atoms: _138  and  _139
REMARK   62  A    between atoms: _141  and  _143
REMARK   63  A    between atoms: _143  and  _144
REMARK   64  A    between atoms: _143  and  _146
REMARK   65  A    between atoms: _146  and  _147
REMARK   66  A    between atoms: _150  and  _152
REMARK   67  A    between atoms: _152  and  _153
REMARK   68  A    between atoms: _155  and  _157
REMARK   69  A    between atoms: _157  and  _158
REMARK   70  A    between atoms: _160  and  _162
REMARK   71  A    between atoms: _162  and  _163
REMARK   72  A    between atoms: _162  and  _165
REMARK   73  A    between atoms: _165  and  _166
REMARK   74  A    between atoms: _172  and  _174
REMARK   75  A    between atoms: _174  and  _175
REMARK   76  A    between atoms: _174  and  _177
REMARK   77  A    between atoms: _177  and  _178
REMARK   78  A    between atoms: _181  and  _183
REMARK   79  A    between atoms: _183  and  _184
REMARK   80  A    between atoms: _183  and  _186
REMARK   81  A    between atoms: _186  and  _187
REMARK   82  A    between atoms: _190  and  _192
REMARK   83  A    between atoms: _192  and  _193
REMARK   84  A    between atoms: _192  and  _195
REMARK   85  A    between atoms: _195  and  _196
REMARK   86  A    between atoms: _200  and  _201
REMARK   87  A    between atoms: _206  and  _208
REMARK   88  A    between atoms: _208  and  _209
REMARK   89  A    between atoms: _208  and  _211
REMARK   90  A    between atoms: _211  and  _212
REMARK   91  A    between atoms: _215  and  _217
REMARK   92  A    between atoms: _217  and  _218
REMARK   93  A    between atoms: _217  and  _220
REMARK   94  A    between atoms: _220  and  _221
REMARK   95  A    between atoms: _226  and  _228
REMARK   96  A    between atoms: _228  and  _229
REMARK   97  A    between atoms: _228  and  _231
REMARK   98  A    between atoms: _234  and  _236
REMARK   99  A    between atoms: _236  and  _237
REMARK  100  A    between atoms: _236  and  _239
REMARK  101  A    between atoms: _239  and  _240
REMARK  102  A    between atoms: _243  and  _245
REMARK  103  A    between atoms: _245  and  _246
REMARK  104  A    between atoms: _248  and  _250
REMARK  105  A    between atoms: _250  and  _251
REMARK  106  A    between atoms: _250  and  _253
REMARK  107  A    between atoms: _253  and  _254
REMARK  108  A    between atoms: _254  and  _255
REMARK  109  A    between atoms: _255  and  _256
REMARK  110  A    between atoms: _265  and  _267
REMARK  111  A    between atoms: _267  and  _268
REMARK  112  A    between atoms: _267  and  _270
REMARK  113  A    between atoms: _270  and  _271
REMARK  114  A    between atoms: _276  and  _278
REMARK  115  A    between atoms: _278  and  _279
REMARK  116  A    between atoms: _278  and  _281
REMARK  117  A    between atoms: _281  and  _282
REMARK  118  A    between atoms: _282  and  _283
REMARK  119  A    between atoms: _283  and  _284
REMARK  120  A    between atoms: _293  and  _295
REMARK  121  A    between atoms: _295  and  _296
REMARK  122  A    between atoms: _295  and  _298
REMARK  123  A    between atoms: _298  and  _299
REMARK  124  A    between atoms: _302  and  _304
REMARK  125  A    between atoms: _304  and  _305
REMARK  126  A    between atoms: _304  and  _307
REMARK  127  A    between atoms: _307  and  _308
REMARK  128  A    between atoms: _311  and  _313
REMARK  129  A    between atoms: _313  and  _314
REMARK  130  A    between atoms: _313  and  _316
REMARK  131  A    between atoms: _316  and  _317
REMARK  132  A    between atoms: _320  and  _322
REMARK  133  A    between atoms: _322  and  _323
REMARK  134  A    between atoms: _322  and  _325
REMARK  135  A    between atoms: _325  and  _326
REMARK  136  A    between atoms: _329  and  _331
REMARK  137  A    between atoms: _331  and  _332
REMARK  138  A    between atoms: _331  and  _334
REMARK  139  A    between atoms: _334  and  _335
REMARK  140  A    between atoms: _338  and  _340
REMARK  141  A    between atoms: _340  and  _341
REMARK  142  A    between atoms: _343  and  _345
REMARK  143  A    between atoms: _345  and  _346
REMARK  144  A    between atoms: _349  and  _351
REMARK  145  A    between atoms: _351  and  _352
REMARK  146  A    between atoms: _351  and  _354
REMARK  147  A    between atoms: _354  and  _355
REMARK  148  A    between atoms: _358  and  _360
REMARK  149  A    between atoms: _360  and  _361
REMARK  150  A    between atoms: _360  and  _363
REMARK  151  A    between atoms: _363  and  _364
REMARK  152  A    between atoms: _367  and  _369
REMARK  153  A    between atoms: _369  and  _370
REMARK  154  A    between atoms: _369  and  _372
REMARK  155  A    between atoms: _372  and  _373
REMARK  156  A    between atoms: _376  and  _378
REMARK  157  A    between atoms: _378  and  _379
REMARK  158  A    between atoms: _378  and  _381
REMARK  159  A    between atoms: _384  and  _386
REMARK  160  A    between atoms: _386  and  _387
REMARK  161  A    between atoms: _386  and  _389
REMARK  162  A    between atoms: _389  and  _390
REMARK  163  A    between atoms: _390  and  _391
REMARK  164  A    between atoms: _391  and  _392
REMARK  165  A    between atoms: _392  and  _393
REMARK  166  A    between atoms: _397  and  _399
REMARK  167  A    between atoms: _399  and  _400
REMARK  168  A    between atoms: _399  and  _402
REMARK  169  A    between atoms: _402  and  _403
REMARK  170  A    between atoms: _403  and  _404
REMARK  171  A    between atoms: _406  and  _408
REMARK  172  A    between atoms: _408  and  _409
REMARK  173  A    between atoms: _408  and  _411
REMARK  174  A    between atoms: _411  and  _412
REMARK  175  A    between atoms: _415  and  _417
REMARK  176  A    between atoms: _417  and  _418
REMARK  177  A    between atoms: _420  and  _422
REMARK  178  A    between atoms: _422  and  _423
REMARK  179  A    between atoms: _425  and  _427
REMARK  180  A    between atoms: _427  and  _428
REMARK  181  A    between atoms: _427  and  _430
REMARK  182  A    between atoms: _430  and  _431
REMARK  183  A    between atoms: _434  and  _436
REMARK  184  A    between atoms: _436  and  _437
REMARK  185  A    between atoms: _439  and  _441
REMARK  186  A    between atoms: _441  and  _442
REMARK  187  A    between atoms: _444  and  _446
REMARK  188  A    between atoms: _446  and  _447
REMARK  189  A    between atoms: _446  and  _449
REMARK  190  A    between atoms: _449  and  _450
REMARK  191  A    between atoms: _456  and  _458
REMARK  192  A    between atoms: _458  and  _459
REMARK  193  A    between atoms: _458  and  _461
REMARK  194  A    between atoms: _461  and  _462
REMARK  195  A    between atoms: _465  and  _467
REMARK  196  A    between atoms: _467  and  _468
REMARK  197  A    between atoms: _467  and  _470
REMARK  198  A    between atoms: _473  and  _475
REMARK  199  A    between atoms: _475  and  _476
REMARK  200  A    between atoms: _475  and  _478
REMARK  201  A    between atoms: _478  and  _479
REMARK  202  A    between atoms: _482  and  _484
REMARK  203  A    between atoms: _484  and  _485
REMARK  204  A    between atoms: _484  and  _487
REMARK  205  A    between atoms: _485  and  _486
REMARK  206  A    between atoms: _485  and  _491
REMARK  207  A    between atoms: _487  and  _488
REMARK  208  A    between atoms: _492  and  _493
REMARK  209  A    between atoms: _498  and  _500
REMARK  210  A    between atoms: _500  and  _501
REMARK  211  A    between atoms: _500  and  _503
REMARK  212  A    between atoms: _503  and  _504
REMARK  213  A    between atoms: _507  and  _509
REMARK  214  A    between atoms: _509  and  _510
REMARK  215  A    between atoms: _509  and  _512
REMARK  216  A    between atoms: _512  and  _513
REMARK  217  A    between atoms: _518  and  _520
REMARK  218  A    between atoms: _520  and  _521
REMARK  219  A    between atoms: _520  and  _523
REMARK  220  A    between atoms: _526  and  _528
REMARK  221  A    between atoms: _528  and  _529
REMARK  222  A    between atoms: _528  and  _531
REMARK  223  A    between atoms: _531  and  _532
REMARK  224  A    between atoms: _535  and  _537
REMARK  225  A    between atoms: _537  and  _538
REMARK  226  A    between atoms: _540  and  _542
REMARK  227  A    between atoms: _542  and  _543
REMARK  228  A    between atoms: _542  and  _545
REMARK  229  A    between atoms: _545  and  _546
REMARK  230  A    between atoms: _546  and  _547
REMARK  231  A    between atoms: _547  and  _548
REMARK                            x       y       z     vdW  Elec       q    Type
REMARK                         _______ _______ _______ _____ _____    ______ ____
ROOT
ATOM      1  O   HOH     1       3.811  25.985   7.257  0.00  0.00    +0.000 OA
ENDROOT
TORSDOF 0
REMARK  Name = ../refined-set-2016/4cps/4cps_pocket.pdb
REMARK  231 active torsions:
REMARK  status: ('A' for Active; 'I' for Inactive)
REMARK    1  A    between atoms: _1  and  _3
REMARK    2  A    between atoms: _3  and  _4
REMARK    3  A    between atoms: _3  and  _6
REMARK    4  A    between atoms: _6  and  _7
REMARK    5  A    between atoms: _7  and  _8
REMARK    6  A    between atoms: _8  and  _9
REMARK    7  A    between atoms: _18  and  _20
REMARK    8  A    between atoms: _20  and  _21
REMARK    9  A    between atoms: _20  and  _23
REMARK   10  A    between atoms: _23  and  _24
REMARK   11  A    between atoms: _27  and  _29
REMARK   12  A    between atoms: _29  and  _30
REMARK   13  A    between atoms: _29  and  _32
REMARK   14  A    between atoms: _32  and  _33
REMARK   15  A    between atoms: _36  and  _38
REMARK   16  A    between atoms: _38  and  _39
REMARK   17  A    between atoms: _38  and  _41
REMARK   18  A    between atoms: _41  and  _42
REMARK   19  A    between atoms: _45  and  _47
REMARK   20  A    between atoms: _47  and  _48
REMARK   21  A    between atoms: _47  and  _50
REMARK   22  A    between atoms: _50  and  _51
REMARK   23  A    between atoms: _54  and  _56
REMARK   24  A    between atoms: _56  and  _57
REMARK   25  A    between atoms: _59  and  _61
REMARK   26  A    between atoms: _61  and  _62
REMARK   27  A    between atoms: _65  and  _67
REMARK   28  A    between atoms: _67  and  _68
REMARK   29  A    between atoms: _67  and  _70
REMARK   30  A    between atoms: _70  and  _71
REMARK   31  A    between atoms: _74  and  _76
REMARK   32  A    between atoms: _76  and  _77
REMARK   33  A    between atoms: _76  and  _79
REMARK   34  A    between atoms: _79  and  _80
REMARK   35  A    between atoms: _83  and  _85
REMARK   36  A    between atoms: _85  and  _86
REMARK   37  A    between atoms: _85  and  _88
REMARK   38  A    between atoms: _88  and  _89
REMARK   39  A    between atoms: _92  and  _94
REMARK   40  A    between atoms: _94  and  _95
REMARK   41  A    between atoms: _94  and  _97
REMARK   42  A    between atoms: _100  and  _102
REMARK   43  A    between atoms: _102  and  _103
REMARK   44  A    between atoms: _102  and  _105
REMARK   45  A    between atoms: _105  and  _106
REMARK   46  A    between atoms: _106  and  _107
REMARK   47  A    between atoms: _107  and  _108
REMARK   48  A    between atoms: _108  and  _109
REMARK   49  A    between atoms: _113  and  _115
REMARK   50  A    between atoms: _115  and  _116
REMARK   51  A    between atoms: _115  and  _118
REMARK   52  A    between atoms: _118  and  _119
REMARK   53  A    between atoms: _119  and  _120
REMARK   54  A    between atoms: _122  and  _124
REMARK   55  A    between atoms: _124  and  _125
REMARK   56  A    between atoms: _124  and  _127
REMARK   57  A    between atoms: _127  and  _128
REMARK   58  A    between atoms: _131  and  _133
REMARK   59  A    between atoms: _133  and  _134
REMARK   60  A    between atoms: _136  and  _138
REMARK   61  A    between atoms: _138  and  _139
REMARK   62  A    between atoms: _141  and  _143
REMARK   63  A    between atoms: _143  and  _144
REMARK   64  A    between atoms: _143  and  _146
REMARK   65  A    between atoms: _146  and  _147
REMARK   66  A    between atoms: _150  and  _152
REMARK   67  A    between atoms: _152  and  _153
REMARK   68  A    between atoms: _155  and  _157
REMARK   69  A    between atoms: _157  and  _158
REMARK   70  A    between atoms: _160  and  _162
REMARK   71  A    between atoms: _162  and  _163
REMARK   72  A    between atoms: _162  and  _165
REMARK   73  A    between atoms: _165  and  _166
REMARK   74  A    between atoms: _172  and  _174
REMARK   75  A    between atoms: _174  and  _175
REMARK   76  A    between atoms: _174  and  _177
REMARK   77  A    between atoms: _177  and  _178
REMARK   78  A    between atoms: _181  and  _183
REMARK   79  A    between atoms: _183  and  _184
REMARK   80  A    between atoms: _183  and  _186
REMARK   81  A    between atoms: _186  and  _187
REMARK   82  A    between atoms: _190  and  _192
REMARK   83  A    between atoms: _192  and  _193
REMARK   84  A    between atoms: _192  and  _195
REMARK   85  A    between atoms: _195  and  _196
REMARK   86  A    between atoms: _200  and  _201
REMARK   87  A    between atoms: _206  and  _208
REMARK   88  A    between atoms: _208  and  _209
REMARK   89  A    between atoms: _208  and  _211
REMARK   90  A    between atoms: _211  and  _212
REMARK   91  A    between atoms: _215  and  _217
REMARK   92  A    between atoms: _217  and  _218
REMARK   93  A    between atoms: _217  and  _220
REMARK   94  A    between atoms: _220  and  _221
REMARK   95  A    between atoms: _226  and  _228
REMARK   96  A    between atoms: _228  and  _229
REMARK   97  A    between atoms: _228  and  _231
REMARK   98  A    between atoms: _234  and  _236
REMARK   99  A    between atoms: _236  and  _237
REMARK  100  A    between atoms: _236  and  _239
REMARK  101  A    between atoms: _239  and  _240
REMARK  102  A    between atoms: _243  and  _245
REMARK  103  A    between atoms: _245  and  _246
REMARK  104  A    between atoms: _248  and  _250
REMARK  105  A    between atoms: _250  and  _251
REMARK  106  A    between atoms: _250  and  _253
REMARK  107  A    between atoms: _253  and  _254
REMARK  108  A    between atoms: _254  and  _255
REMARK  109  A    between atoms: _255  and  _256
REMARK  110  A    between atoms: _265  and  _267
REMARK  111  A    between atoms: _267  and  _268
REMARK  112  A    between atoms: _267  and  _270
REMARK  113  A    between atoms: _270  and  _271
REMARK  114  A    between atoms: _276  and  _278
REMARK  115  A    between atoms: _278  and  _279
REMARK  116  A    between atoms: _278  and  _281
REMARK  117  A    between atoms: _281  and  _282
REMARK  118  A    between atoms: _282  and  _283
REMARK  119  A    between atoms: _283  and  _284
REMARK  120  A    between atoms: _293  and  _295
REMARK  121  A    between atoms: _295  and  _296
REMARK  122  A    between atoms: _295  and  _298
REMARK  123  A    between atoms: _298  and  _299
REMARK  124  A    between atoms: _302  and  _304
REMARK  125  A    between atoms: _304  and  _305
REMARK  126  A    between atoms: _304  and  _307
REMARK  127  A    between atoms: _307  and  _308
REMARK  128  A    between atoms: _311  and  _313
REMARK  129  A    between atoms: _313  and  _314
REMARK  130  A    between atoms: _313  and  _316
REMARK  131  A    between atoms: _316  and  _317
REMARK  132  A    between atoms: _320  and  _322
REMARK  133  A    between atoms: _322  and  _323
REMARK  134  A    between atoms: _322  and  _325
REMARK  135  A    between atoms: _325  and  _326
REMARK  136  A    between atoms: _329  and  _331
REMARK  137  A    between atoms: _331  and  _332
REMARK  138  A    between atoms: _331  and  _334
REMARK  139  A    between atoms: _334  and  _335
REMARK  140  A    between atoms: _338  and  _340
REMARK  141  A    between atoms: _340  and  _341
REMARK  142  A    between atoms: _343  and  _345
REMARK  143  A    between atoms: _345  and  _346
REMARK  144  A    between atoms: _349  and  _351
REMARK  145  A    between atoms: _351  and  _352
REMARK  146  A    between atoms: _351  and  _354
REMARK  147  A    between atoms: _354  and  _355
REMARK  148  A    between atoms: _358  and  _360
REMARK  149  A    between atoms: _360  and  _361
REMARK  150  A    between atoms: _360  and  _363
REMARK  151  A    between atoms: _363  and  _364
REMARK  152  A    between atoms: _367  and  _369
REMARK  153  A    between atoms: _369  and  _370
REMARK  154  A    between atoms: _369  and  _372
REMARK  155  A    between atoms: _372  and  _373
REMARK  156  A    between atoms: _376  and  _378
REMARK  157  A    between atoms: _378  and  _379
REMARK  158  A    between atoms: _378  and  _381
REMARK  159  A    between atoms: _384  and  _386
REMARK  160  A    between atoms: _386  and  _387
REMARK  161  A    between atoms: _386  and  _389
REMARK  162  A    between atoms: _389  and  _390
REMARK  163  A    between atoms: _390  and  _391
REMARK  164  A    between atoms: _391  and  _392
REMARK  165  A    between atoms: _392  and  _393
REMARK  166  A    between atoms: _397  and  _399
REMARK  167  A    between atoms: _399  and  _400
REMARK  168  A    between atoms: _399  and  _402
REMARK  169  A    between atoms: _402  and  _403
REMARK  170  A    between atoms: _403  and  _404
REMARK  171  A    between atoms: _406  and  _408
REMARK  172  A    between atoms: _408  and  _409
REMARK  173  A    between atoms: _408  and  _411
REMARK  174  A    between atoms: _411  and  _412
REMARK  175  A    between atoms: _415  and  _417
REMARK  176  A    between atoms: _417  and  _418
REMARK  177  A    between atoms: _420  and  _422
REMARK  178  A    between atoms: _422  and  _423
REMARK  179  A    between atoms: _425  and  _427
REMARK  180  A    between atoms: _427  and  _428
REMARK  181  A    between atoms: _427  and  _430
REMARK  182  A    between atoms: _430  and  _431
REMARK  183  A    between atoms: _434  and  _436
REMARK  184  A    between atoms: _436  and  _437
REMARK  185  A    between atoms: _439  and  _441
REMARK  186  A    between atoms: _441  and  _442
REMARK  187  A    between atoms: _444  and  _446
REMARK  188  A    between atoms: _446  and  _447
REMARK  189  A    between atoms: _446  and  _449
REMARK  190  A    between atoms: _449  and  _450
REMARK  191  A    between atoms: _456  and  _458
REMARK  192  A    between atoms: _458  and  _459
REMARK  193  A    between atoms: _458  and  _461
REMARK  194  A    between atoms: _461  and  _462
REMARK  195  A    between atoms: _465  and  _467
REMARK  196  A    between atoms: _467  and  _468
REMARK  197  A    between atoms: _467  and  _470
REMARK  198  A    between atoms: _473  and  _475
REMARK  199  A    between atoms: _475  and  _476
REMARK  200  A    between atoms: _475  and  _478
REMARK  201  A    between atoms: _478  and  _479
REMARK  202  A    between atoms: _482  and  _484
REMARK  203  A    between atoms: _484  and  _485
REMARK  204  A    between atoms: _484  and  _487
REMARK  205  A    between atoms: _485  and  _486
REMARK  206  A    between atoms: _485  and  _491
REMARK  207  A    between atoms: _487  and  _488
REMARK  208  A    between atoms: _492  and  _493
REMARK  209  A    between atoms: _498  and  _500
REMARK  210  A    between atoms: _500  and  _501
REMARK  211  A    between atoms: _500  and  _503
REMARK  212  A    between atoms: _503  and  _504
REMARK  213  A    between atoms: _507  and  _509
REMARK  214  A    between atoms: _509  and  _510
REMARK  215  A    between atoms: _509  and  _512
REMARK  216  A    between atoms: _512  and  _513
REMARK  217  A    between atoms: _518  and  _520
REMARK  218  A    between atoms: _520  and  _521
REMARK  219  A    between atoms: _520  and  _523
REMARK  220  A    between atoms: _526  and  _528
REMARK  221  A    between atoms: _528  and  _529
REMARK  222  A    between atoms: _528  and  _531
REMARK  223  A    between atoms: _531  and  _532
REMARK  224  A    between atoms: _535  and  _537
REMARK  225  A    between atoms: _537  and  _538
REMARK  226  A    between atoms: _540  and  _542
REMARK  227  A    between atoms: _542  and  _543
REMARK  228  A    between atoms: _542  and  _545
REMARK  229  A    between atoms: _545  and  _546
REMARK  230  A    between atoms: _546  and  _547
REMARK  231  A    between atoms: _547  and  _548
REMARK                            x       y       z     vdW  Elec       q    Type
REMARK                         _______ _______ _______ _____ _____    ______ ____
ROOT
ATOM      1  O   HOH     1      11.459  20.912   6.564  0.00  0.00    +0.000 OA
ENDROOT
TORSDOF 0
REMARK  Name = ../refined-set-2016/4cps/4cps_pocket.pdb
REMARK  231 active torsions:
REMARK  status: ('A' for Active; 'I' for Inactive)
REMARK    1  A    between atoms: _1  and  _3
REMARK    2  A    between atoms: _3  and  _4
REMARK    3  A    between atoms: _3  and  _6
REMARK    4  A    between atoms: _6  and  _7
REMARK    5  A    between atoms: _7  and  _8
REMARK    6  A    between atoms: _8  and  _9
REMARK    7  A    between atoms: _18  and  _20
REMARK    8  A    between atoms: _20  and  _21
REMARK    9  A    between atoms: _20  and  _23
REMARK   10  A    between atoms: _23  and  _24
REMARK   11  A    between atoms: _27  and  _29
REMARK   12  A    between atoms: _29  and  _30
REMARK   13  A    between atoms: _29  and  _32
REMARK   14  A    between atoms: _32  and  _33
REMARK   15  A    between atoms: _36  and  _38
REMARK   16  A    between atoms: _38  and  _39
REMARK   17  A    between atoms: _38  and  _41
REMARK   18  A    between atoms: _41  and  _42
REMARK   19  A    between atoms: _45  and  _47
REMARK   20  A    between atoms: _47  and  _48
REMARK   21  A    between atoms: _47  and  _50
REMARK   22  A    between atoms: _50  and  _51
REMARK   23  A    between atoms: _54  and  _56
REMARK   24  A    between atoms: _56  and  _57
REMARK   25  A    between atoms: _59  and  _61
REMARK   26  A    between atoms: _61  and  _62
REMARK   27  A    between atoms: _65  and  _67
REMARK   28  A    between atoms: _67  and  _68
REMARK   29  A    between atoms: _67  and  _70
REMARK   30  A    between atoms: _70  and  _71
REMARK   31  A    between atoms: _74  and  _76
REMARK   32  A    between atoms: _76  and  _77
REMARK   33  A    between atoms: _76  and  _79
REMARK   34  A    between atoms: _79  and  _80
REMARK   35  A    between atoms: _83  and  _85
REMARK   36  A    between atoms: _85  and  _86
REMARK   37  A    between atoms: _85  and  _88
REMARK   38  A    between atoms: _88  and  _89
REMARK   39  A    between atoms: _92  and  _94
REMARK   40  A    between atoms: _94  and  _95
REMARK   41  A    between atoms: _94  and  _97
REMARK   42  A    between atoms: _100  and  _102
REMARK   43  A    between atoms: _102  and  _103
REMARK   44  A    between atoms: _102  and  _105
REMARK   45  A    between atoms: _105  and  _106
REMARK   46  A    between atoms: _106  and  _107
REMARK   47  A    between atoms: _107  and  _108
REMARK   48  A    between atoms: _108  and  _109
REMARK   49  A    between atoms: _113  and  _115
REMARK   50  A    between atoms: _115  and  _116
REMARK   51  A    between atoms: _115  and  _118
REMARK   52  A    between atoms: _118  and  _119
REMARK   53  A    between atoms: _119  and  _120
REMARK   54  A    between atoms: _122  and  _124
REMARK   55  A    between atoms: _124  and  _125
REMARK   56  A    between atoms: _124  and  _127
REMARK   57  A    between atoms: _127  and  _128
REMARK   58  A    between atoms: _131  and  _133
REMARK   59  A    between atoms: _133  and  _134
REMARK   60  A    between atoms: _136  and  _138
REMARK   61  A    between atoms: _138  and  _139
REMARK   62  A    between atoms: _141  and  _143
REMARK   63  A    between atoms: _143  and  _144
REMARK   64  A    between atoms: _143  and  _146
REMARK   65  A    between atoms: _146  and  _147
REMARK   66  A    between atoms: _150  and  _152
REMARK   67  A    between atoms: _152  and  _153
REMARK   68  A    between atoms: _155  and  _157
REMARK   69  A    between atoms: _157  and  _158
REMARK   70  A    between atoms: _160  and  _162
REMARK   71  A    between atoms: _162  and  _163
REMARK   72  A    between atoms: _162  and  _165
REMARK   73  A    between atoms: _165  and  _166
REMARK   74  A    between atoms: _172  and  _174
REMARK   75  A    between atoms: _174  and  _175
REMARK   76  A    between atoms: _174  and  _177
REMARK   77  A    between atoms: _177  and  _178
REMARK   78  A    between atoms: _181  and  _183
REMARK   79  A    between atoms: _183  and  _184
REMARK   80  A    between atoms: _183  and  _186
REMARK   81  A    between atoms: _186  and  _187
REMARK   82  A    between atoms: _190  and  _192
REMARK   83  A    between atoms: _192  and  _193
REMARK   84  A    between atoms: _192  and  _195
REMARK   85  A    between atoms: _195  and  _196
REMARK   86  A    between atoms: _200  and  _201
REMARK   87  A    between atoms: _206  and  _208
REMARK   88  A    between atoms: _208  and  _209
REMARK   89  A    between atoms: _208  and  _211
REMARK   90  A    between atoms: _211  and  _212
REMARK   91  A    between atoms: _215  and  _217
REMARK   92  A    between atoms: _217  and  _218
REMARK   93  A    between atoms: _217  and  _220
REMARK   94  A    between atoms: _220  and  _221
REMARK   95  A    between atoms: _226  and  _228
REMARK   96  A    between atoms: _228  and  _229
REMARK   97  A    between atoms: _228  and  _231
REMARK   98  A    between atoms: _234  and  _236
REMARK   99  A    between atoms: _236  and  _237
REMARK  100  A    between atoms: _236  and  _239
REMARK  101  A    between atoms: _239  and  _240
REMARK  102  A    between atoms: _243  and  _245
REMARK  103  A    between atoms: _245  and  _246
REMARK  104  A    between atoms: _248  and  _250
REMARK  105  A    between atoms: _250  and  _251
REMARK  106  A    between atoms: _250  and  _253
REMARK  107  A    between atoms: _253  and  _254
REMARK  108  A    between atoms: _254  and  _255
REMARK  109  A    between atoms: _255  and  _256
REMARK  110  A    between atoms: _265  and  _267
REMARK  111  A    between atoms: _267  and  _268
REMARK  112  A    between atoms: _267  and  _270
REMARK  113  A    between atoms: _270  and  _271
REMARK  114  A    between atoms: _276  and  _278
REMARK  115  A    between atoms: _278  and  _279
REMARK  116  A    between atoms: _278  and  _281
REMARK  117  A    between atoms: _281  and  _282
REMARK  118  A    between atoms: _282  and  _283
REMARK  119  A    between atoms: _283  and  _284
REMARK  120  A    between atoms: _293  and  _295
REMARK  121  A    between atoms: _295  and  _296
REMARK  122  A    between atoms: _295  and  _298
REMARK  123  A    between atoms: _298  and  _299
REMARK  124  A    between atoms: _302  and  _304
REMARK  125  A    between atoms: _304  and  _305
REMARK  126  A    between atoms: _304  and  _307
REMARK  127  A    between atoms: _307  and  _308
REMARK  128  A    between atoms: _311  and  _313
REMARK  129  A    between atoms: _313  and  _314
REMARK  130  A    between atoms: _313  and  _316
REMARK  131  A    between atoms: _316  and  _317
REMARK  132  A    between atoms: _320  and  _322
REMARK  133  A    between atoms: _322  and  _323
REMARK  134  A    between atoms: _322  and  _325
REMARK  135  A    between atoms: _325  and  _326
REMARK  136  A    between atoms: _329  and  _331
REMARK  137  A    between atoms: _331  and  _332
REMARK  138  A    between atoms: _331  and  _334
REMARK  139  A    between atoms: _334  and  _335
REMARK  140  A    between atoms: _338  and  _340
REMARK  141  A    between atoms: _340  and  _341
REMARK  142  A    between atoms: _343  and  _345
REMARK  143  A    between atoms: _345  and  _346
REMARK  144  A    between atoms: _349  and  _351
REMARK  145  A    between atoms: _351  and  _352
REMARK  146  A    between atoms: _351  and  _354
REMARK  147  A    between atoms: _354  and  _355
REMARK  148  A    between atoms: _358  and  _360
REMARK  149  A    between atoms: _360  and  _361
REMARK  150  A    between atoms: _360  and  _363
REMARK  151  A    between atoms: _363  and  _364
REMARK  152  A    between atoms: _367  and  _369
REMARK  153  A    between atoms: _369  and  _370
REMARK  154  A    between atoms: _369  and  _372
REMARK  155  A    between atoms: _372  and  _373
REMARK  156  A    between atoms: _376  and  _378
REMARK  157  A    between atoms: _378  and  _379
REMARK  158  A    between atoms: _378  and  _381
REMARK  159  A    between atoms: _384  and  _386
REMARK  160  A    between atoms: _386  and  _387
REMARK  161  A    between atoms: _386  and  _389
REMARK  162  A    between atoms: _389  and  _390
REMARK  163  A    between atoms: _390  and  _391
REMARK  164  A    between atoms: _391  and  _392
REMARK  165  A    between atoms: _392  and  _393
REMARK  166  A    between atoms: _397  and  _399
REMARK  167  A    between atoms: _399  and  _400
REMARK  168  A    between atoms: _399  and  _402
REMARK  169  A    between atoms: _402  and  _403
REMARK  170  A    between atoms: _403  and  _404
REMARK  171  A    between atoms: _406  and  _408
REMARK  172  A    between atoms: _408  and  _409
REMARK  173  A    between atoms: _408  and  _411
REMARK  174  A    between atoms: _411  and  _412
REMARK  175  A    between atoms: _415  and  _417
REMARK  176  A    between atoms: _417  and  _418
REMARK  177  A    between atoms: _420  and  _422
REMARK  178  A    between atoms: _422  and  _423
REMARK  179  A    between atoms: _425  and  _427
REMARK  180  A    between atoms: _427  and  _428
REMARK  181  A    between atoms: _427  and  _430
REMARK  182  A    between atoms: _430  and  _431
REMARK  183  A    between atoms: _434  and  _436
REMARK  184  A    between atoms: _436  and  _437
REMARK  185  A    between atoms: _439  and  _441
REMARK  186  A    between atoms: _441  and  _442
REMARK  187  A    between atoms: _444  and  _446
REMARK  188  A    between atoms: _446  and  _447
REMARK  189  A    between atoms: _446  and  _449
REMARK  190  A    between atoms: _449  and  _450
REMARK  191  A    between atoms: _456  and  _458
REMARK  192  A    between atoms: _458  and  _459
REMARK  193  A    between atoms: _458  and  _461
REMARK  194  A    between atoms: _461  and  _462
REMARK  195  A    between atoms: _465  and  _467
REMARK  196  A    between atoms: _467  and  _468
REMARK  197  A    between atoms: _467  and  _470
REMARK  198  A    between atoms: _473  and  _475
REMARK  199  A    between atoms: _475  and  _476
REMARK  200  A    between atoms: _475  and  _478
REMARK  201  A    between atoms: _478  and  _479
REMARK  202  A    between atoms: _482  and  _484
REMARK  203  A    between atoms: _484  and  _485
REMARK  204  A    between atoms: _484  and  _487
REMARK  205  A    between atoms: _485  and  _486
REMARK  206  A    between atoms: _485  and  _491
REMARK  207  A    between atoms: _487  and  _488
REMARK  208  A    between atoms: _492  and  _493
REMARK  209  A    between atoms: _498  and  _500
REMARK  210  A    between atoms: _500  and  _501
REMARK  211  A    between atoms: _500  and  _503
REMARK  212  A    between atoms: _503  and  _504
REMARK  213  A    between atoms: _507  and  _509
REMARK  214  A    between atoms: _509  and  _510
REMARK  215  A    between atoms: _509  and  _512
REMARK  216  A    between atoms: _512  and  _513
REMARK  217  A    between atoms: _518  and  _520
REMARK  218  A    between atoms: _520  and  _521
REMARK  219  A    between atoms: _520  and  _523
REMARK  220  A    between atoms: _526  and  _528
REMARK  221  A    between atoms: _528  and  _529
REMARK  222  A    between atoms: _528  and  _531
REMARK  223  A    between atoms: _531  and  _532
REMARK  224  A    between atoms: _535  and  _537
REMARK  225  A    between atoms: _537  and  _538
REMARK  226  A    between atoms: _540  and  _542
REMARK  227  A    between atoms: _542  and  _543
REMARK  228  A    between atoms: _542  and  _545
REMARK  229  A    between atoms: _545  and  _546
REMARK  230  A    between atoms: _546  and  _547
REMARK  231  A    between atoms: _547  and  _548
REMARK                            x       y       z     vdW  Elec       q    Type
REMARK                         _______ _______ _______ _____ _____    ______ ____
ROOT
ATOM      1  O   HOH     1       6.782  15.467   3.655  0.00  0.00    +0.000 OA
ENDROOT
TORSDOF 0
REMARK  Name = ../refined-set-2016/4cps/4cps_pocket.pdb
REMARK  231 active torsions:
REMARK  status: ('A' for Active; 'I' for Inactive)
REMARK    1  A    between atoms: _1  and  _3
REMARK    2  A    between atoms: _3  and  _4
REMARK    3  A    between atoms: _3  and  _6
REMARK    4  A    between atoms: _6  and  _7
REMARK    5  A    between atoms: _7  and  _8
REMARK    6  A    between atoms: _8  and  _9
REMARK    7  A    between atoms: _18  and  _20
REMARK    8  A    between atoms: _20  and  _21
REMARK    9  A    between atoms: _20  and  _23
REMARK   10  A    between atoms: _23  and  _24
REMARK   11  A    between atoms: _27  and  _29
REMARK   12  A    between atoms: _29  and  _30
REMARK   13  A    between atoms: _29  and  _32
REMARK   14  A    between atoms: _32  and  _33
REMARK   15  A    between atoms: _36  and  _38
REMARK   16  A    between atoms: _38  and  _39
REMARK   17  A    between atoms: _38  and  _41
REMARK   18  A    between atoms: _41  and  _42
REMARK   19  A    between atoms: _45  and  _47
REMARK   20  A    between atoms: _47  and  _48
REMARK   21  A    between atoms: _47  and  _50
REMARK   22  A    between atoms: _50  and  _51
REMARK   23  A    between atoms: _54  and  _56
REMARK   24  A    between atoms: _56  and  _57
REMARK   25  A    between atoms: _59  and  _61
REMARK   26  A    between atoms: _61  and  _62
REMARK   27  A    between atoms: _65  and  _67
REMARK   28  A    between atoms: _67  and  _68
REMARK   29  A    between atoms: _67  and  _70
REMARK   30  A    between atoms: _70  and  _71
REMARK   31  A    between atoms: _74  and  _76
REMARK   32  A    between atoms: _76  and  _77
REMARK   33  A    between atoms: _76  and  _79
REMARK   34  A    between atoms: _79  and  _80
REMARK   35  A    between atoms: _83  and  _85
REMARK   36  A    between atoms: _85  and  _86
REMARK   37  A    between atoms: _85  and  _88
REMARK   38  A    between atoms: _88  and  _89
REMARK   39  A    between atoms: _92  and  _94
REMARK   40  A    between atoms: _94  and  _95
REMARK   41  A    between atoms: _94  and  _97
REMARK   42  A    between atoms: _100  and  _102
REMARK   43  A    between atoms: _102  and  _103
REMARK   44  A    between atoms: _102  and  _105
REMARK   45  A    between atoms: _105  and  _106
REMARK   46  A    between atoms: _106  and  _107
REMARK   47  A    between atoms: _107  and  _108
REMARK   48  A    between atoms: _108  and  _109
REMARK   49  A    between atoms: _113  and  _115
REMARK   50  A    between atoms: _115  and  _116
REMARK   51  A    between atoms: _115  and  _118
REMARK   52  A    between atoms: _118  and  _119
REMARK   53  A    between atoms: _119  and  _120
REMARK   54  A    between atoms: _122  and  _124
REMARK   55  A    between atoms: _124  and  _125
REMARK   56  A    between atoms: _124  and  _127
REMARK   57  A    between atoms: _127  and  _128
REMARK   58  A    between atoms: _131  and  _133
REMARK   59  A    between atoms: _133  and  _134
REMARK   60  A    between atoms: _136  and  _138
REMARK   61  A    between atoms: _138  and  _139
REMARK   62  A    between atoms: _141  and  _143
REMARK   63  A    between atoms: _143  and  _144
REMARK   64  A    between atoms: _143  and  _146
REMARK   65  A    between atoms: _146  and  _147
REMARK   66  A    between atoms: _150  and  _152
REMARK   67  A    between atoms: _152  and  _153
REMARK   68  A    between atoms: _155  and  _157
REMARK   69  A    between atoms: _157  and  _158
REMARK   70  A    between atoms: _160  and  _162
REMARK   71  A    between atoms: _162  and  _163
REMARK   72  A    between atoms: _162  and  _165
REMARK   73  A    between atoms: _165  and  _166
REMARK   74  A    between atoms: _172  and  _174
REMARK   75  A    between atoms: _174  and  _175
REMARK   76  A    between atoms: _174  and  _177
REMARK   77  A    between atoms: _177  and  _178
REMARK   78  A    between atoms: _181  and  _183
REMARK   79  A    between atoms: _183  and  _184
REMARK   80  A    between atoms: _183  and  _186
REMARK   81  A    between atoms: _186  and  _187
REMARK   82  A    between atoms: _190  and  _192
REMARK   83  A    between atoms: _192  and  _193
REMARK   84  A    between atoms: _192  and  _195
REMARK   85  A    between atoms: _195  and  _196
REMARK   86  A    between atoms: _200  and  _201
REMARK   87  A    between atoms: _206  and  _208
REMARK   88  A    between atoms: _208  and  _209
REMARK   89  A    between atoms: _208  and  _211
REMARK   90  A    between atoms: _211  and  _212
REMARK   91  A    between atoms: _215  and  _217
REMARK   92  A    between atoms: _217  and  _218
REMARK   93  A    between atoms: _217  and  _220
REMARK   94  A    between atoms: _220  and  _221
REMARK   95  A    between atoms: _226  and  _228
REMARK   96  A    between atoms: _228  and  _229
REMARK   97  A    between atoms: _228  and  _231
REMARK   98  A    between atoms: _234  and  _236
REMARK   99  A    between atoms: _236  and  _237
REMARK  100  A    between atoms: _236  and  _239
REMARK  101  A    between atoms: _239  and  _240
REMARK  102  A    between atoms: _243  and  _245
REMARK  103  A    between atoms: _245  and  _246
REMARK  104  A    between atoms: _248  and  _250
REMARK  105  A    between atoms: _250  and  _251
REMARK  106  A    between atoms: _250  and  _253
REMARK  107  A    between atoms: _253  and  _254
REMARK  108  A    between atoms: _254  and  _255
REMARK  109  A    between atoms: _255  and  _256
REMARK  110  A    between atoms: _265  and  _267
REMARK  111  A    between atoms: _267  and  _268
REMARK  112  A    between atoms: _267  and  _270
REMARK  113  A    between atoms: _270  and  _271
REMARK  114  A    between atoms: _276  and  _278
REMARK  115  A    between atoms: _278  and  _279
REMARK  116  A    between atoms: _278  and  _281
REMARK  117  A    between atoms: _281  and  _282
REMARK  118  A    between atoms: _282  and  _283
REMARK  119  A    between atoms: _283  and  _284
REMARK  120  A    between atoms: _293  and  _295
REMARK  121  A    between atoms: _295  and  _296
REMARK  122  A    between atoms: _295  and  _298
REMARK  123  A    between atoms: _298  and  _299
REMARK  124  A    between atoms: _302  and  _304
REMARK  125  A    between atoms: _304  and  _305
REMARK  126  A    between atoms: _304  and  _307
REMARK  127  A    between atoms: _307  and  _308
REMARK  128  A    between atoms: _311  and  _313
REMARK  129  A    between atoms: _313  and  _314
REMARK  130  A    between atoms: _313  and  _316
REMARK  131  A    between atoms: _316  and  _317
REMARK  132  A    between atoms: _320  and  _322
REMARK  133  A    between atoms: _322  and  _323
REMARK  134  A    between atoms: _322  and  _325
REMARK  135  A    between atoms: _325  and  _326
REMARK  136  A    between atoms: _329  and  _331
REMARK  137  A    between atoms: _331  and  _332
REMARK  138  A    between atoms: _331  and  _334
REMARK  139  A    between atoms: _334  and  _335
REMARK  140  A    between atoms: _338  and  _340
REMARK  141  A    between atoms: _340  and  _341
REMARK  142  A    between atoms: _343  and  _345
REMARK  143  A    between atoms: _345  and  _346
REMARK  144  A    between atoms: _349  and  _351
REMARK  145  A    between atoms: _351  and  _352
REMARK  146  A    between atoms: _351  and  _354
REMARK  147  A    between atoms: _354  and  _355
REMARK  148  A    between atoms: _358  and  _360
REMARK  149  A    between atoms: _360  and  _361
REMARK  150  A    between atoms: _360  and  _363
REMARK  151  A    between atoms: _363  and  _364
REMARK  152  A    between atoms: _367  and  _369
REMARK  153  A    between atoms: _369  and  _370
REMARK  154  A    between atoms: _369  and  _372
REMARK  155  A    between atoms: _372  and  _373
REMARK  156  A    between atoms: _376  and  _378
REMARK  157  A    between atoms: _378  and  _379
REMARK  158  A    between atoms: _378  and  _381
REMARK  159  A    between atoms: _384  and  _386
REMARK  160  A    between atoms: _386  and  _387
REMARK  161  A    between atoms: _386  and  _389
REMARK  162  A    between atoms: _389  and  _390
REMARK  163  A    between atoms: _390  and  _391
REMARK  164  A    between atoms: _391  and  _392
REMARK  165  A    between atoms: _392  and  _393
REMARK  166  A    between atoms: _397  and  _399
REMARK  167  A    between atoms: _399  and  _400
REMARK  168  A    between atoms: _399  and  _402
REMARK  169  A    between atoms: _402  and  _403
REMARK  170  A    between atoms: _403  and  _404
REMARK  171  A    between atoms: _406  and  _408
REMARK  172  A    between atoms: _408  and  _409
REMARK  173  A    between atoms: _408  and  _411
REMARK  174  A    between atoms: _411  and  _412
REMARK  175  A    between atoms: _415  and  _417
REMARK  176  A    between atoms: _417  and  _418
REMARK  177  A    between atoms: _420  and  _422
REMARK  178  A    between atoms: _422  and  _423
REMARK  179  A    between atoms: _425  and  _427
REMARK  180  A    between atoms: _427  and  _428
REMARK  181  A    between atoms: _427  and  _430
REMARK  182  A    between atoms: _430  and  _431
REMARK  183  A    between atoms: _434  and  _436
REMARK  184  A    between atoms: _436  and  _437
REMARK  185  A    between atoms: _439  and  _441
REMARK  186  A    between atoms: _441  and  _442
REMARK  187  A    between atoms: _444  and  _446
REMARK  188  A    between atoms: _446  and  _447
REMARK  189  A    between atoms: _446  and  _449
REMARK  190  A    between atoms: _449  and  _450
REMARK  191  A    between atoms: _456  and  _458
REMARK  192  A    between atoms: _458  and  _459
REMARK  193  A    between atoms: _458  and  _461
REMARK  194  A    between atoms: _461  and  _462
REMARK  195  A    between atoms: _465  and  _467
REMARK  196  A    between atoms: _467  and  _468
REMARK  197  A    between atoms: _467  and  _470
REMARK  198  A    between atoms: _473  and  _475
REMARK  199  A    between atoms: _475  and  _476
REMARK  200  A    between atoms: _475  and  _478
REMARK  201  A    between atoms: _478  and  _479
REMARK  202  A    between atoms: _482  and  _484
REMARK  203  A    between atoms: _484  and  _485
REMARK  204  A    between atoms: _484  and  _487
REMARK  205  A    between atoms: _485  and  _486
REMARK  206  A    between atoms: _485  and  _491
REMARK  207  A    between atoms: _487  and  _488
REMARK  208  A    between atoms: _492  and  _493
REMARK  209  A    between atoms: _498  and  _500
REMARK  210  A    between atoms: _500  and  _501
REMARK  211  A    between atoms: _500  and  _503
REMARK  212  A    between atoms: _503  and  _504
REMARK  213  A    between atoms: _507  and  _509
REMARK  214  A    between atoms: _509  and  _510
REMARK  215  A    between atoms: _509  and  _512
REMARK  216  A    between atoms: _512  and  _513
REMARK  217  A    between atoms: _518  and  _520
REMARK  218  A    between atoms: _520  and  _521
REMARK  219  A    between atoms: _520  and  _523
REMARK  220  A    between atoms: _526  and  _528
REMARK  221  A    between atoms: _528  and  _529
REMARK  222  A    between atoms: _528  and  _531
REMARK  223  A    between atoms: _531  and  _532
REMARK  224  A    between atoms: _535  and  _537
REMARK  225  A    between atoms: _537  and  _538
REMARK  226  A    between atoms: _540  and  _542
REMARK  227  A    between atoms: _542  and  _543
REMARK  228  A    between atoms: _542  and  _545
REMARK  229  A    between atoms: _545  and  _546
REMARK  230  A    between atoms: _546  and  _547
REMARK  231  A    between atoms: _547  and  _548
REMARK                            x       y       z     vdW  Elec       q    Type
REMARK                         _______ _______ _______ _____ _____    ______ ____
ROOT
ATOM      1  O   HOH     1      21.631  22.994  11.021  0.00  0.00    +0.000 OA
ENDROOT
TORSDOF 0
REMARK  Name = ../refined-set-2016/4cps/4cps_pocket.pdb
REMARK  231 active torsions:
REMARK  status: ('A' for Active; 'I' for Inactive)
REMARK    1  A    between atoms: _1  and  _3
REMARK    2  A    between atoms: _3  and  _4
REMARK    3  A    between atoms: _3  and  _6
REMARK    4  A    between atoms: _6  and  _7
REMARK    5  A    between atoms: _7  and  _8
REMARK    6  A    between atoms: _8  and  _9
REMARK    7  A    between atoms: _18  and  _20
REMARK    8  A    between atoms: _20  and  _21
REMARK    9  A    between atoms: _20  and  _23
REMARK   10  A    between atoms: _23  and  _24
REMARK   11  A    between atoms: _27  and  _29
REMARK   12  A    between atoms: _29  and  _30
REMARK   13  A    between atoms: _29  and  _32
REMARK   14  A    between atoms: _32  and  _33
REMARK   15  A    between atoms: _36  and  _38
REMARK   16  A    between atoms: _38  and  _39
REMARK   17  A    between atoms: _38  and  _41
REMARK   18  A    between atoms: _41  and  _42
REMARK   19  A    between atoms: _45  and  _47
REMARK   20  A    between atoms: _47  and  _48
REMARK   21  A    between atoms: _47  and  _50
REMARK   22  A    between atoms: _50  and  _51
REMARK   23  A    between atoms: _54  and  _56
REMARK   24  A    between atoms: _56  and  _57
REMARK   25  A    between atoms: _59  and  _61
REMARK   26  A    between atoms: _61  and  _62
REMARK   27  A    between atoms: _65  and  _67
REMARK   28  A    between atoms: _67  and  _68
REMARK   29  A    between atoms: _67  and  _70
REMARK   30  A    between atoms: _70  and  _71
REMARK   31  A    between atoms: _74  and  _76
REMARK   32  A    between atoms: _76  and  _77
REMARK   33  A    between atoms: _76  and  _79
REMARK   34  A    between atoms: _79  and  _80
REMARK   35  A    between atoms: _83  and  _85
REMARK   36  A    between atoms: _85  and  _86
REMARK   37  A    between atoms: _85  and  _88
REMARK   38  A    between atoms: _88  and  _89
REMARK   39  A    between atoms: _92  and  _94
REMARK   40  A    between atoms: _94  and  _95
REMARK   41  A    between atoms: _94  and  _97
REMARK   42  A    between atoms: _100  and  _102
REMARK   43  A    between atoms: _102  and  _103
REMARK   44  A    between atoms: _102  and  _105
REMARK   45  A    between atoms: _105  and  _106
REMARK   46  A    between atoms: _106  and  _107
REMARK   47  A    between atoms: _107  and  _108
REMARK   48  A    between atoms: _108  and  _109
REMARK   49  A    between atoms: _113  and  _115
REMARK   50  A    between atoms: _115  and  _116
REMARK   51  A    between atoms: _115  and  _118
REMARK   52  A    between atoms: _118  and  _119
REMARK   53  A    between atoms: _119  and  _120
REMARK   54  A    between atoms: _122  and  _124
REMARK   55  A    between atoms: _124  and  _125
REMARK   56  A    between atoms: _124  and  _127
REMARK   57  A    between atoms: _127  and  _128
REMARK   58  A    between atoms: _131  and  _133
REMARK   59  A    between atoms: _133  and  _134
REMARK   60  A    between atoms: _136  and  _138
REMARK   61  A    between atoms: _138  and  _139
REMARK   62  A    between atoms: _141  and  _143
REMARK   63  A    between atoms: _143  and  _144
REMARK   64  A    between atoms: _143  and  _146
REMARK   65  A    between atoms: _146  and  _147
REMARK   66  A    between atoms: _150  and  _152
REMARK   67  A    between atoms: _152  and  _153
REMARK   68  A    between atoms: _155  and  _157
REMARK   69  A    between atoms: _157  and  _158
REMARK   70  A    between atoms: _160  and  _162
REMARK   71  A    between atoms: _162  and  _163
REMARK   72  A    between atoms: _162  and  _165
REMARK   73  A    between atoms: _165  and  _166
REMARK   74  A    between atoms: _172  and  _174
REMARK   75  A    between atoms: _174  and  _175
REMARK   76  A    between atoms: _174  and  _177
REMARK   77  A    between atoms: _177  and  _178
REMARK   78  A    between atoms: _181  and  _183
REMARK   79  A    between atoms: _183  and  _184
REMARK   80  A    between atoms: _183  and  _186
REMARK   81  A    between atoms: _186  and  _187
REMARK   82  A    between atoms: _190  and  _192
REMARK   83  A    between atoms: _192  and  _193
REMARK   84  A    between atoms: _192  and  _195
REMARK   85  A    between atoms: _195  and  _196
REMARK   86  A    between atoms: _200  and  _201
REMARK   87  A    between atoms: _206  and  _208
REMARK   88  A    between atoms: _208  and  _209
REMARK   89  A    between atoms: _208  and  _211
REMARK   90  A    between atoms: _211  and  _212
REMARK   91  A    between atoms: _215  and  _217
REMARK   92  A    between atoms: _217  and  _218
REMARK   93  A    between atoms: _217  and  _220
REMARK   94  A    between atoms: _220  and  _221
REMARK   95  A    between atoms: _226  and  _228
REMARK   96  A    between atoms: _228  and  _229
REMARK   97  A    between atoms: _228  and  _231
REMARK   98  A    between atoms: _234  and  _236
REMARK   99  A    between atoms: _236  and  _237
REMARK  100  A    between atoms: _236  and  _239
REMARK  101  A    between atoms: _239  and  _240
REMARK  102  A    between atoms: _243  and  _245
REMARK  103  A    between atoms: _245  and  _246
REMARK  104  A    between atoms: _248  and  _250
REMARK  105  A    between atoms: _250  and  _251
REMARK  106  A    between atoms: _250  and  _253
REMARK  107  A    between atoms: _253  and  _254
REMARK  108  A    between atoms: _254  and  _255
REMARK  109  A    between atoms: _255  and  _256
REMARK  110  A    between atoms: _265  and  _267
REMARK  111  A    between atoms: _267  and  _268
REMARK  112  A    between atoms: _267  and  _270
REMARK  113  A    between atoms: _270  and  _271
REMARK  114  A    between atoms: _276  and  _278
REMARK  115  A    between atoms: _278  and  _279
REMARK  116  A    between atoms: _278  and  _281
REMARK  117  A    between atoms: _281  and  _282
REMARK  118  A    between atoms: _282  and  _283
REMARK  119  A    between atoms: _283  and  _284
REMARK  120  A    between atoms: _293  and  _295
REMARK  121  A    between atoms: _295  and  _296
REMARK  122  A    between atoms: _295  and  _298
REMARK  123  A    between atoms: _298  and  _299
REMARK  124  A    between atoms: _302  and  _304
REMARK  125  A    between atoms: _304  and  _305
REMARK  126  A    between atoms: _304  and  _307
REMARK  127  A    between atoms: _307  and  _308
REMARK  128  A    between atoms: _311  and  _313
REMARK  129  A    between atoms: _313  and  _314
REMARK  130  A    between atoms: _313  and  _316
REMARK  131  A    between atoms: _316  and  _317
REMARK  132  A    between atoms: _320  and  _322
REMARK  133  A    between atoms: _322  and  _323
REMARK  134  A    between atoms: _322  and  _325
REMARK  135  A    between atoms: _325  and  _326
REMARK  136  A    between atoms: _329  and  _331
REMARK  137  A    between atoms: _331  and  _332
REMARK  138  A    between atoms: _331  and  _334
REMARK  139  A    between atoms: _334  and  _335
REMARK  140  A    between atoms: _338  and  _340
REMARK  141  A    between atoms: _340  and  _341
REMARK  142  A    between atoms: _343  and  _345
REMARK  143  A    between atoms: _345  and  _346
REMARK  144  A    between atoms: _349  and  _351
REMARK  145  A    between atoms: _351  and  _352
REMARK  146  A    between atoms: _351  and  _354
REMARK  147  A    between atoms: _354  and  _355
REMARK  148  A    between atoms: _358  and  _360
REMARK  149  A    between atoms: _360  and  _361
REMARK  150  A    between atoms: _360  and  _363
REMARK  151  A    between atoms: _363  and  _364
REMARK  152  A    between atoms: _367  and  _369
REMARK  153  A    between atoms: _369  and  _370
REMARK  154  A    between atoms: _369  and  _372
REMARK  155  A    between atoms: _372  and  _373
REMARK  156  A    between atoms: _376  and  _378
REMARK  157  A    between atoms: _378  and  _379
REMARK  158  A    between atoms: _378  and  _381
REMARK  159  A    between atoms: _384  and  _386
REMARK  160  A    between atoms: _386  and  _387
REMARK  161  A    between atoms: _386  and  _389
REMARK  162  A    between atoms: _389  and  _390
REMARK  163  A    between atoms: _390  and  _391
REMARK  164  A    between atoms: _391  and  _392
REMARK  165  A    between atoms: _392  and  _393
REMARK  166  A    between atoms: _397  and  _399
REMARK  167  A    between atoms: _399  and  _400
REMARK  168  A    between atoms: _399  and  _402
REMARK  169  A    between atoms: _402  and  _403
REMARK  170  A    between atoms: _403  and  _404
REMARK  171  A    between atoms: _406  and  _408
REMARK  172  A    between atoms: _408  and  _409
REMARK  173  A    between atoms: _408  and  _411
REMARK  174  A    between atoms: _411  and  _412
REMARK  175  A    between atoms: _415  and  _417
REMARK  176  A    between atoms: _417  and  _418
REMARK  177  A    between atoms: _420  and  _422
REMARK  178  A    between atoms: _422  and  _423
REMARK  179  A    between atoms: _425  and  _427
REMARK  180  A    between atoms: _427  and  _428
REMARK  181  A    between atoms: _427  and  _430
REMARK  182  A    between atoms: _430  and  _431
REMARK  183  A    between atoms: _434  and  _436
REMARK  184  A    between atoms: _436  and  _437
REMARK  185  A    between atoms: _439  and  _441
REMARK  186  A    between atoms: _441  and  _442
REMARK  187  A    between atoms: _444  and  _446
REMARK  188  A    between atoms: _446  and  _447
REMARK  189  A    between atoms: _446  and  _449
REMARK  190  A    between atoms: _449  and  _450
REMARK  191  A    between atoms: _456  and  _458
REMARK  192  A    between atoms: _458  and  _459
REMARK  193  A    between atoms: _458  and  _461
REMARK  194  A    between atoms: _461  and  _462
REMARK  195  A    between atoms: _465  and  _467
REMARK  196  A    between atoms: _467  and  _468
REMARK  197  A    between atoms: _467  and  _470
REMARK  198  A    between atoms: _473  and  _475
REMARK  199  A    between atoms: _475  and  _476
REMARK  200  A    between atoms: _475  and  _478
REMARK  201  A    between atoms: _478  and  _479
REMARK  202  A    between atoms: _482  and  _484
REMARK  203  A    between atoms: _484  and  _485
REMARK  204  A    between atoms: _484  and  _487
REMARK  205  A    between atoms: _485  and  _486
REMARK  206  A    between atoms: _485  and  _491
REMARK  207  A    between atoms: _487  and  _488
REMARK  208  A    between atoms: _492  and  _493
REMARK  209  A    between atoms: _498  and  _500
REMARK  210  A    between atoms: _500  and  _501
REMARK  211  A    between atoms: _500  and  _503
REMARK  212  A    between atoms: _503  and  _504
REMARK  213  A    between atoms: _507  and  _509
REMARK  214  A    between atoms: _509  and  _510
REMARK  215  A    between atoms: _509  and  _512
REMARK  216  A    between atoms: _512  and  _513
REMARK  217  A    between atoms: _518  and  _520
REMARK  218  A    between atoms: _520  and  _521
REMARK  219  A    between atoms: _520  and  _523
REMARK  220  A    between atoms: _526  and  _528
REMARK  221  A    between atoms: _528  and  _529
REMARK  222  A    between atoms: _528  and  _531
REMARK  223  A    between atoms: _531  and  _532
REMARK  224  A    between atoms: _535  and  _537
REMARK  225  A    between atoms: _537  and  _538
REMARK  226  A    between atoms: _540  and  _542
REMARK  227  A    between atoms: _542  and  _543
REMARK  228  A    between atoms: _542  and  _545
REMARK  229  A    between atoms: _545  and  _546
REMARK  230  A    between atoms: _546  and  _547
REMARK  231  A    between atoms: _547  and  _548
REMARK                            x       y       z     vdW  Elec       q    Type
REMARK                         _______ _______ _______ _____ _____    ______ ____
ROOT
ATOM      1  O   HOH     1      22.509  14.346   7.103  0.00  0.00    +0.000 OA
ENDROOT
TORSDOF 0
REMARK  Name = ../refined-set-2016/4cps/4cps_pocket.pdb
REMARK  231 active torsions:
REMARK  status: ('A' for Active; 'I' for Inactive)
REMARK    1  A    between atoms: _1  and  _3
REMARK    2  A    between atoms: _3  and  _4
REMARK    3  A    between atoms: _3  and  _6
REMARK    4  A    between atoms: _6  and  _7
REMARK    5  A    between atoms: _7  and  _8
REMARK    6  A    between atoms: _8  and  _9
REMARK    7  A    between atoms: _18  and  _20
REMARK    8  A    between atoms: _20  and  _21
REMARK    9  A    between atoms: _20  and  _23
REMARK   10  A    between atoms: _23  and  _24
REMARK   11  A    between atoms: _27  and  _29
REMARK   12  A    between atoms: _29  and  _30
REMARK   13  A    between atoms: _29  and  _32
REMARK   14  A    between atoms: _32  and  _33
REMARK   15  A    between atoms: _36  and  _38
REMARK   16  A    between atoms: _38  and  _39
REMARK   17  A    between atoms: _38  and  _41
REMARK   18  A    between atoms: _41  and  _42
REMARK   19  A    between atoms: _45  and  _47
REMARK   20  A    between atoms: _47  and  _48
REMARK   21  A    between atoms: _47  and  _50
REMARK   22  A    between atoms: _50  and  _51
REMARK   23  A    between atoms: _54  and  _56
REMARK   24  A    between atoms: _56  and  _57
REMARK   25  A    between atoms: _59  and  _61
REMARK   26  A    between atoms: _61  and  _62
REMARK   27  A    between atoms: _65  and  _67
REMARK   28  A    between atoms: _67  and  _68
REMARK   29  A    between atoms: _67  and  _70
REMARK   30  A    between atoms: _70  and  _71
REMARK   31  A    between atoms: _74  and  _76
REMARK   32  A    between atoms: _76  and  _77
REMARK   33  A    between atoms: _76  and  _79
REMARK   34  A    between atoms: _79  and  _80
REMARK   35  A    between atoms: _83  and  _85
REMARK   36  A    between atoms: _85  and  _86
REMARK   37  A    between atoms: _85  and  _88
REMARK   38  A    between atoms: _88  and  _89
REMARK   39  A    between atoms: _92  and  _94
REMARK   40  A    between atoms: _94  and  _95
REMARK   41  A    between atoms: _94  and  _97
REMARK   42  A    between atoms: _100  and  _102
REMARK   43  A    between atoms: _102  and  _103
REMARK   44  A    between atoms: _102  and  _105
REMARK   45  A    between atoms: _105  and  _106
REMARK   46  A    between atoms: _106  and  _107
REMARK   47  A    between atoms: _107  and  _108
REMARK   48  A    between atoms: _108  and  _109
REMARK   49  A    between atoms: _113  and  _115
REMARK   50  A    between atoms: _115  and  _116
REMARK   51  A    between atoms: _115  and  _118
REMARK   52  A    between atoms: _118  and  _119
REMARK   53  A    between atoms: _119  and  _120
REMARK   54  A    between atoms: _122  and  _124
REMARK   55  A    between atoms: _124  and  _125
REMARK   56  A    between atoms: _124  and  _127
REMARK   57  A    between atoms: _127  and  _128
REMARK   58  A    between atoms: _131  and  _133
REMARK   59  A    between atoms: _133  and  _134
REMARK   60  A    between atoms: _136  and  _138
REMARK   61  A    between atoms: _138  and  _139
REMARK   62  A    between atoms: _141  and  _143
REMARK   63  A    between atoms: _143  and  _144
REMARK   64  A    between atoms: _143  and  _146
REMARK   65  A    between atoms: _146  and  _147
REMARK   66  A    between atoms: _150  and  _152
REMARK   67  A    between atoms: _152  and  _153
REMARK   68  A    between atoms: _155  and  _157
REMARK   69  A    between atoms: _157  and  _158
REMARK   70  A    between atoms: _160  and  _162
REMARK   71  A    between atoms: _162  and  _163
REMARK   72  A    between atoms: _162  and  _165
REMARK   73  A    between atoms: _165  and  _166
REMARK   74  A    between atoms: _172  and  _174
REMARK   75  A    between atoms: _174  and  _175
REMARK   76  A    between atoms: _174  and  _177
REMARK   77  A    between atoms: _177  and  _178
REMARK   78  A    between atoms: _181  and  _183
REMARK   79  A    between atoms: _183  and  _184
REMARK   80  A    between atoms: _183  and  _186
REMARK   81  A    between atoms: _186  and  _187
REMARK   82  A    between atoms: _190  and  _192
REMARK   83  A    between atoms: _192  and  _193
REMARK   84  A    between atoms: _192  and  _195
REMARK   85  A    between atoms: _195  and  _196
REMARK   86  A    between atoms: _200  and  _201
REMARK   87  A    between atoms: _206  and  _208
REMARK   88  A    between atoms: _208  and  _209
REMARK   89  A    between atoms: _208  and  _211
REMARK   90  A    between atoms: _211  and  _212
REMARK   91  A    between atoms: _215  and  _217
REMARK   92  A    between atoms: _217  and  _218
REMARK   93  A    between atoms: _217  and  _220
REMARK   94  A    between atoms: _220  and  _221
REMARK   95  A    between atoms: _226  and  _228
REMARK   96  A    between atoms: _228  and  _229
REMARK   97  A    between atoms: _228  and  _231
REMARK   98  A    between atoms: _234  and  _236
REMARK   99  A    between atoms: _236  and  _237
REMARK  100  A    between atoms: _236  and  _239
REMARK  101  A    between atoms: _239  and  _240
REMARK  102  A    between atoms: _243  and  _245
REMARK  103  A    between atoms: _245  and  _246
REMARK  104  A    between atoms: _248  and  _250
REMARK  105  A    between atoms: _250  and  _251
REMARK  106  A    between atoms: _250  and  _253
REMARK  107  A    between atoms: _253  and  _254
REMARK  108  A    between atoms: _254  and  _255
REMARK  109  A    between atoms: _255  and  _256
REMARK  110  A    between atoms: _265  and  _267
REMARK  111  A    between atoms: _267  and  _268
REMARK  112  A    between atoms: _267  and  _270
REMARK  113  A    between atoms: _270  and  _271
REMARK  114  A    between atoms: _276  and  _278
REMARK  115  A    between atoms: _278  and  _279
REMARK  116  A    between atoms: _278  and  _281
REMARK  117  A    between atoms: _281  and  _282
REMARK  118  A    between atoms: _282  and  _283
REMARK  119  A    between atoms: _283  and  _284
REMARK  120  A    between atoms: _293  and  _295
REMARK  121  A    between atoms: _295  and  _296
REMARK  122  A    between atoms: _295  and  _298
REMARK  123  A    between atoms: _298  and  _299
REMARK  124  A    between atoms: _302  and  _304
REMARK  125  A    between atoms: _304  and  _305
REMARK  126  A    between atoms: _304  and  _307
REMARK  127  A    between atoms: _307  and  _308
REMARK  128  A    between atoms: _311  and  _313
REMARK  129  A    between atoms: _313  and  _314
REMARK  130  A    between atoms: _313  and  _316
REMARK  131  A    between atoms: _316  and  _317
REMARK  132  A    between atoms: _320  and  _322
REMARK  133  A    between atoms: _322  and  _323
REMARK  134  A    between atoms: _322  and  _325
REMARK  135  A    between atoms: _325  and  _326
REMARK  136  A    between atoms: _329  and  _331
REMARK  137  A    between atoms: _331  and  _332
REMARK  138  A    between atoms: _331  and  _334
REMARK  139  A    between atoms: _334  and  _335
REMARK  140  A    between atoms: _338  and  _340
REMARK  141  A    between atoms: _340  and  _341
REMARK  142  A    between atoms: _343  and  _345
REMARK  143  A    between atoms: _345  and  _346
REMARK  144  A    between atoms: _349  and  _351
REMARK  145  A    between atoms: _351  and  _352
REMARK  146  A    between atoms: _351  and  _354
REMARK  147  A    between atoms: _354  and  _355
REMARK  148  A    between atoms: _358  and  _360
REMARK  149  A    between atoms: _360  and  _361
REMARK  150  A    between atoms: _360  and  _363
REMARK  151  A    between atoms: _363  and  _364
REMARK  152  A    between atoms: _367  and  _369
REMARK  153  A    between atoms: _369  and  _370
REMARK  154  A    between atoms: _369  and  _372
REMARK  155  A    between atoms: _372  and  _373
REMARK  156  A    between atoms: _376  and  _378
REMARK  157  A    between atoms: _378  and  _379
REMARK  158  A    between atoms: _378  and  _381
REMARK  159  A    between atoms: _384  and  _386
REMARK  160  A    between atoms: _386  and  _387
REMARK  161  A    between atoms: _386  and  _389
REMARK  162  A    between atoms: _389  and  _390
REMARK  163  A    between atoms: _390  and  _391
REMARK  164  A    between atoms: _391  and  _392
REMARK  165  A    between atoms: _392  and  _393
REMARK  166  A    between atoms: _397  and  _399
REMARK  167  A    between atoms: _399  and  _400
REMARK  168  A    between atoms: _399  and  _402
REMARK  169  A    between atoms: _402  and  _403
REMARK  170  A    between atoms: _403  and  _404
REMARK  171  A    between atoms: _406  and  _408
REMARK  172  A    between atoms: _408  and  _409
REMARK  173  A    between atoms: _408  and  _411
REMARK  174  A    between atoms: _411  and  _412
REMARK  175  A    between atoms: _415  and  _417
REMARK  176  A    between atoms: _417  and  _418
REMARK  177  A    between atoms: _420  and  _422
REMARK  178  A    between atoms: _422  and  _423
REMARK  179  A    between atoms: _425  and  _427
REMARK  180  A    between atoms: _427  and  _428
REMARK  181  A    between atoms: _427  and  _430
REMARK  182  A    between atoms: _430  and  _431
REMARK  183  A    between atoms: _434  and  _436
REMARK  184  A    between atoms: _436  and  _437
REMARK  185  A    between atoms: _439  and  _441
REMARK  186  A    between atoms: _441  and  _442
REMARK  187  A    between atoms: _444  and  _446
REMARK  188  A    between atoms: _446  and  _447
REMARK  189  A    between atoms: _446  and  _449
REMARK  190  A    between atoms: _449  and  _450
REMARK  191  A    between atoms: _456  and  _458
REMARK  192  A    between atoms: _458  and  _459
REMARK  193  A    between atoms: _458  and  _461
REMARK  194  A    between atoms: _461  and  _462
REMARK  195  A    between atoms: _465  and  _467
REMARK  196  A    between atoms: _467  and  _468
REMARK  197  A    between atoms: _467  and  _470
REMARK  198  A    between atoms: _473  and  _475
REMARK  199  A    between atoms: _475  and  _476
REMARK  200  A    between atoms: _475  and  _478
REMARK  201  A    between atoms: _478  and  _479
REMARK  202  A    between atoms: _482  and  _484
REMARK  203  A    between atoms: _484  and  _485
REMARK  204  A    between atoms: _484  and  _487
REMARK  205  A    between atoms: _485  and  _486
REMARK  206  A    between atoms: _485  and  _491
REMARK  207  A    between atoms: _487  and  _488
REMARK  208  A    between atoms: _492  and  _493
REMARK  209  A    between atoms: _498  and  _500
REMARK  210  A    between atoms: _500  and  _501
REMARK  211  A    between atoms: _500  and  _503
REMARK  212  A    between atoms: _503  and  _504
REMARK  213  A    between atoms: _507  and  _509
REMARK  214  A    between atoms: _509  and  _510
REMARK  215  A    between atoms: _509  and  _512
REMARK  216  A    between atoms: _512  and  _513
REMARK  217  A    between atoms: _518  and  _520
REMARK  218  A    between atoms: _520  and  _521
REMARK  219  A    between atoms: _520  and  _523
REMARK  220  A    between atoms: _526  and  _528
REMARK  221  A    between atoms: _528  and  _529
REMARK  222  A    between atoms: _528  and  _531
REMARK  223  A    between atoms: _531  and  _532
REMARK  224  A    between atoms: _535  and  _537
REMARK  225  A    between atoms: _537  and  _538
REMARK  226  A    between atoms: _540  and  _542
REMARK  227  A    between atoms: _542  and  _543
REMARK  228  A    between atoms: _542  and  _545
REMARK  229  A    between atoms: _545  and  _546
REMARK  230  A    between atoms: _546  and  _547
REMARK  231  A    between atoms: _547  and  _548
REMARK                            x       y       z     vdW  Elec       q    Type
REMARK                         _______ _______ _______ _____ _____    ______ ____
ROOT
ATOM      1  O   HOH     1      21.946  23.980   4.865  0.00  0.00    +0.000 OA
ENDROOT
TORSDOF 0
REMARK  Name = ../refined-set-2016/4cps/4cps_pocket.pdb
REMARK  231 active torsions:
REMARK  status: ('A' for Active; 'I' for Inactive)
REMARK    1  A    between atoms: _1  and  _3
REMARK    2  A    between atoms: _3  and  _4
REMARK    3  A    between atoms: _3  and  _6
REMARK    4  A    between atoms: _6  and  _7
REMARK    5  A    between atoms: _7  and  _8
REMARK    6  A    between atoms: _8  and  _9
REMARK    7  A    between atoms: _18  and  _20
REMARK    8  A    between atoms: _20  and  _21
REMARK    9  A    between atoms: _20  and  _23
REMARK   10  A    between atoms: _23  and  _24
REMARK   11  A    between atoms: _27  and  _29
REMARK   12  A    between atoms: _29  and  _30
REMARK   13  A    between atoms: _29  and  _32
REMARK   14  A    between atoms: _32  and  _33
REMARK   15  A    between atoms: _36  and  _38
REMARK   16  A    between atoms: _38  and  _39
REMARK   17  A    between atoms: _38  and  _41
REMARK   18  A    between atoms: _41  and  _42
REMARK   19  A    between atoms: _45  and  _47
REMARK   20  A    between atoms: _47  and  _48
REMARK   21  A    between atoms: _47  and  _50
REMARK   22  A    between atoms: _50  and  _51
REMARK   23  A    between atoms: _54  and  _56
REMARK   24  A    between atoms: _56  and  _57
REMARK   25  A    between atoms: _59  and  _61
REMARK   26  A    between atoms: _61  and  _62
REMARK   27  A    between atoms: _65  and  _67
REMARK   28  A    between atoms: _67  and  _68
REMARK   29  A    between atoms: _67  and  _70
REMARK   30  A    between atoms: _70  and  _71
REMARK   31  A    between atoms: _74  and  _76
REMARK   32  A    between atoms: _76  and  _77
REMARK   33  A    between atoms: _76  and  _79
REMARK   34  A    between atoms: _79  and  _80
REMARK   35  A    between atoms: _83  and  _85
REMARK   36  A    between atoms: _85  and  _86
REMARK   37  A    between atoms: _85  and  _88
REMARK   38  A    between atoms: _88  and  _89
REMARK   39  A    between atoms: _92  and  _94
REMARK   40  A    between atoms: _94  and  _95
REMARK   41  A    between atoms: _94  and  _97
REMARK   42  A    between atoms: _100  and  _102
REMARK   43  A    between atoms: _102  and  _103
REMARK   44  A    between atoms: _102  and  _105
REMARK   45  A    between atoms: _105  and  _106
REMARK   46  A    between atoms: _106  and  _107
REMARK   47  A    between atoms: _107  and  _108
REMARK   48  A    between atoms: _108  and  _109
REMARK   49  A    between atoms: _113  and  _115
REMARK   50  A    between atoms: _115  and  _116
REMARK   51  A    between atoms: _115  and  _118
REMARK   52  A    between atoms: _118  and  _119
REMARK   53  A    between atoms: _119  and  _120
REMARK   54  A    between atoms: _122  and  _124
REMARK   55  A    between atoms: _124  and  _125
REMARK   56  A    between atoms: _124  and  _127
REMARK   57  A    between atoms: _127  and  _128
REMARK   58  A    between atoms: _131  and  _133
REMARK   59  A    between atoms: _133  and  _134
REMARK   60  A    between atoms: _136  and  _138
REMARK   61  A    between atoms: _138  and  _139
REMARK   62  A    between atoms: _141  and  _143
REMARK   63  A    between atoms: _143  and  _144
REMARK   64  A    between atoms: _143  and  _146
REMARK   65  A    between atoms: _146  and  _147
REMARK   66  A    between atoms: _150  and  _152
REMARK   67  A    between atoms: _152  and  _153
REMARK   68  A    between atoms: _155  and  _157
REMARK   69  A    between atoms: _157  and  _158
REMARK   70  A    between atoms: _160  and  _162
REMARK   71  A    between atoms: _162  and  _163
REMARK   72  A    between atoms: _162  and  _165
REMARK   73  A    between atoms: _165  and  _166
REMARK   74  A    between atoms: _172  and  _174
REMARK   75  A    between atoms: _174  and  _175
REMARK   76  A    between atoms: _174  and  _177
REMARK   77  A    between atoms: _177  and  _178
REMARK   78  A    between atoms: _181  and  _183
REMARK   79  A    between atoms: _183  and  _184
REMARK   80  A    between atoms: _183  and  _186
REMARK   81  A    between atoms: _186  and  _187
REMARK   82  A    between atoms: _190  and  _192
REMARK   83  A    between atoms: _192  and  _193
REMARK   84  A    between atoms: _192  and  _195
REMARK   85  A    between atoms: _195  and  _196
REMARK   86  A    between atoms: _200  and  _201
REMARK   87  A    between atoms: _206  and  _208
REMARK   88  A    between atoms: _208  and  _209
REMARK   89  A    between atoms: _208  and  _211
REMARK   90  A    between atoms: _211  and  _212
REMARK   91  A    between atoms: _215  and  _217
REMARK   92  A    between atoms: _217  and  _218
REMARK   93  A    between atoms: _217  and  _220
REMARK   94  A    between atoms: _220  and  _221
REMARK   95  A    between atoms: _226  and  _228
REMARK   96  A    between atoms: _228  and  _229
REMARK   97  A    between atoms: _228  and  _231
REMARK   98  A    between atoms: _234  and  _236
REMARK   99  A    between atoms: _236  and  _237
REMARK  100  A    between atoms: _236  and  _239
REMARK  101  A    between atoms: _239  and  _240
REMARK  102  A    between atoms: _243  and  _245
REMARK  103  A    between atoms: _245  and  _246
REMARK  104  A    between atoms: _248  and  _250
REMARK  105  A    between atoms: _250  and  _251
REMARK  106  A    between atoms: _250  and  _253
REMARK  107  A    between atoms: _253  and  _254
REMARK  108  A    between atoms: _254  and  _255
REMARK  109  A    between atoms: _255  and  _256
REMARK  110  A    between atoms: _265  and  _267
REMARK  111  A    between atoms: _267  and  _268
REMARK  112  A    between atoms: _267  and  _270
REMARK  113  A    between atoms: _270  and  _271
REMARK  114  A    between atoms: _276  and  _278
REMARK  115  A    between atoms: _278  and  _279
REMARK  116  A    between atoms: _278  and  _281
REMARK  117  A    between atoms: _281  and  _282
REMARK  118  A    between atoms: _282  and  _283
REMARK  119  A    between atoms: _283  and  _284
REMARK  120  A    between atoms: _293  and  _295
REMARK  121  A    between atoms: _295  and  _296
REMARK  122  A    between atoms: _295  and  _298
REMARK  123  A    between atoms: _298  and  _299
REMARK  124  A    between atoms: _302  and  _304
REMARK  125  A    between atoms: _304  and  _305
REMARK  126  A    between atoms: _304  and  _307
REMARK  127  A    between atoms: _307  and  _308
REMARK  128  A    between atoms: _311  and  _313
REMARK  129  A    between atoms: _313  and  _314
REMARK  130  A    between atoms: _313  and  _316
REMARK  131  A    between atoms: _316  and  _317
REMARK  132  A    between atoms: _320  and  _322
REMARK  133  A    between atoms: _322  and  _323
REMARK  134  A    between atoms: _322  and  _325
REMARK  135  A    between atoms: _325  and  _326
REMARK  136  A    between atoms: _329  and  _331
REMARK  137  A    between atoms: _331  and  _332
REMARK  138  A    between atoms: _331  and  _334
REMARK  139  A    between atoms: _334  and  _335
REMARK  140  A    between atoms: _338  and  _340
REMARK  141  A    between atoms: _340  and  _341
REMARK  142  A    between atoms: _343  and  _345
REMARK  143  A    between atoms: _345  and  _346
REMARK  144  A    between atoms: _349  and  _351
REMARK  145  A    between atoms: _351  and  _352
REMARK  146  A    between atoms: _351  and  _354
REMARK  147  A    between atoms: _354  and  _355
REMARK  148  A    between atoms: _358  and  _360
REMARK  149  A    between atoms: _360  and  _361
REMARK  150  A    between atoms: _360  and  _363
REMARK  151  A    between atoms: _363  and  _364
REMARK  152  A    between atoms: _367  and  _369
REMARK  153  A    between atoms: _369  and  _370
REMARK  154  A    between atoms: _369  and  _372
REMARK  155  A    between atoms: _372  and  _373
REMARK  156  A    between atoms: _376  and  _378
REMARK  157  A    between atoms: _378  and  _379
REMARK  158  A    between atoms: _378  and  _381
REMARK  159  A    between atoms: _384  and  _386
REMARK  160  A    between atoms: _386  and  _387
REMARK  161  A    between atoms: _386  and  _389
REMARK  162  A    between atoms: _389  and  _390
REMARK  163  A    between atoms: _390  and  _391
REMARK  164  A    between atoms: _391  and  _392
REMARK  165  A    between atoms: _392  and  _393
REMARK  166  A    between atoms: _397  and  _399
REMARK  167  A    between atoms: _399  and  _400
REMARK  168  A    between atoms: _399  and  _402
REMARK  169  A    between atoms: _402  and  _403
REMARK  170  A    between atoms: _403  and  _404
REMARK  171  A    between atoms: _406  and  _408
REMARK  172  A    between atoms: _408  and  _409
REMARK  173  A    between atoms: _408  and  _411
REMARK  174  A    between atoms: _411  and  _412
REMARK  175  A    between atoms: _415  and  _417
REMARK  176  A    between atoms: _417  and  _418
REMARK  177  A    between atoms: _420  and  _422
REMARK  178  A    between atoms: _422  and  _423
REMARK  179  A    between atoms: _425  and  _427
REMARK  180  A    between atoms: _427  and  _428
REMARK  181  A    between atoms: _427  and  _430
REMARK  182  A    between atoms: _430  and  _431
REMARK  183  A    between atoms: _434  and  _436
REMARK  184  A    between atoms: _436  and  _437
REMARK  185  A    between atoms: _439  and  _441
REMARK  186  A    between atoms: _441  and  _442
REMARK  187  A    between atoms: _444  and  _446
REMARK  188  A    between atoms: _446  and  _447
REMARK  189  A    between atoms: _446  and  _449
REMARK  190  A    between atoms: _449  and  _450
REMARK  191  A    between atoms: _456  and  _458
REMARK  192  A    between atoms: _458  and  _459
REMARK  193  A    between atoms: _458  and  _461
REMARK  194  A    between atoms: _461  and  _462
REMARK  195  A    between atoms: _465  and  _467
REMARK  196  A    between atoms: _467  and  _468
REMARK  197  A    between atoms: _467  and  _470
REMARK  198  A    between atoms: _473  and  _475
REMARK  199  A    between atoms: _475  and  _476
REMARK  200  A    between atoms: _475  and  _478
REMARK  201  A    between atoms: _478  and  _479
REMARK  202  A    between atoms: _482  and  _484
REMARK  203  A    between atoms: _484  and  _485
REMARK  204  A    between atoms: _484  and  _487
REMARK  205  A    between atoms: _485  and  _486
REMARK  206  A    between atoms: _485  and  _491
REMARK  207  A    between atoms: _487  and  _488
REMARK  208  A    between atoms: _492  and  _493
REMARK  209  A    between atoms: _498  and  _500
REMARK  210  A    between atoms: _500  and  _501
REMARK  211  A    between atoms: _500  and  _503
REMARK  212  A    between atoms: _503  and  _504
REMARK  213  A    between atoms: _507  and  _509
REMARK  214  A    between atoms: _509  and  _510
REMARK  215  A    between atoms: _509  and  _512
REMARK  216  A    between atoms: _512  and  _513
REMARK  217  A    between atoms: _518  and  _520
REMARK  218  A    between atoms: _520  and  _521
REMARK  219  A    between atoms: _520  and  _523
REMARK  220  A    between atoms: _526  and  _528
REMARK  221  A    between atoms: _528  and  _529
REMARK  222  A    between atoms: _528  and  _531
REMARK  223  A    between atoms: _531  and  _532
REMARK  224  A    between atoms: _535  and  _537
REMARK  225  A    between atoms: _537  and  _538
REMARK  226  A    between atoms: _540  and  _542
REMARK  227  A    between atoms: _542  and  _543
REMARK  228  A    between atoms: _542  and  _545
REMARK  229  A    between atoms: _545  and  _546
REMARK  230  A    between atoms: _546  and  _547
REMARK  231  A    between atoms: _547  and  _548
REMARK                            x       y       z     vdW  Elec       q    Type
REMARK                         _______ _______ _______ _____ _____    ______ ____
ROOT
ATOM      1  O   HOH     1      24.960  19.266   0.381  0.00  0.00    +0.000 OA
ENDROOT
TORSDOF 0
REMARK  Name = ../refined-set-2016/4cps/4cps_pocket.pdb
REMARK  231 active torsions:
REMARK  status: ('A' for Active; 'I' for Inactive)
REMARK    1  A    between atoms: _1  and  _3
REMARK    2  A    between atoms: _3  and  _4
REMARK    3  A    between atoms: _3  and  _6
REMARK    4  A    between atoms: _6  and  _7
REMARK    5  A    between atoms: _7  and  _8
REMARK    6  A    between atoms: _8  and  _9
REMARK    7  A    between atoms: _18  and  _20
REMARK    8  A    between atoms: _20  and  _21
REMARK    9  A    between atoms: _20  and  _23
REMARK   10  A    between atoms: _23  and  _24
REMARK   11  A    between atoms: _27  and  _29
REMARK   12  A    between atoms: _29  and  _30
REMARK   13  A    between atoms: _29  and  _32
REMARK   14  A    between atoms: _32  and  _33
REMARK   15  A    between atoms: _36  and  _38
REMARK   16  A    between atoms: _38  and  _39
REMARK   17  A    between atoms: _38  and  _41
REMARK   18  A    between atoms: _41  and  _42
REMARK   19  A    between atoms: _45  and  _47
REMARK   20  A    between atoms: _47  and  _48
REMARK   21  A    between atoms: _47  and  _50
REMARK   22  A    between atoms: _50  and  _51
REMARK   23  A    between atoms: _54  and  _56
REMARK   24  A    between atoms: _56  and  _57
REMARK   25  A    between atoms: _59  and  _61
REMARK   26  A    between atoms: _61  and  _62
REMARK   27  A    between atoms: _65  and  _67
REMARK   28  A    between atoms: _67  and  _68
REMARK   29  A    between atoms: _67  and  _70
REMARK   30  A    between atoms: _70  and  _71
REMARK   31  A    between atoms: _74  and  _76
REMARK   32  A    between atoms: _76  and  _77
REMARK   33  A    between atoms: _76  and  _79
REMARK   34  A    between atoms: _79  and  _80
REMARK   35  A    between atoms: _83  and  _85
REMARK   36  A    between atoms: _85  and  _86
REMARK   37  A    between atoms: _85  and  _88
REMARK   38  A    between atoms: _88  and  _89
REMARK   39  A    between atoms: _92  and  _94
REMARK   40  A    between atoms: _94  and  _95
REMARK   41  A    between atoms: _94  and  _97
REMARK   42  A    between atoms: _100  and  _102
REMARK   43  A    between atoms: _102  and  _103
REMARK   44  A    between atoms: _102  and  _105
REMARK   45  A    between atoms: _105  and  _106
REMARK   46  A    between atoms: _106  and  _107
REMARK   47  A    between atoms: _107  and  _108
REMARK   48  A    between atoms: _108  and  _109
REMARK   49  A    between atoms: _113  and  _115
REMARK   50  A    between atoms: _115  and  _116
REMARK   51  A    between atoms: _115  and  _118
REMARK   52  A    between atoms: _118  and  _119
REMARK   53  A    between atoms: _119  and  _120
REMARK   54  A    between atoms: _122  and  _124
REMARK   55  A    between atoms: _124  and  _125
REMARK   56  A    between atoms: _124  and  _127
REMARK   57  A    between atoms: _127  and  _128
REMARK   58  A    between atoms: _131  and  _133
REMARK   59  A    between atoms: _133  and  _134
REMARK   60  A    between atoms: _136  and  _138
REMARK   61  A    between atoms: _138  and  _139
REMARK   62  A    between atoms: _141  and  _143
REMARK   63  A    between atoms: _143  and  _144
REMARK   64  A    between atoms: _143  and  _146
REMARK   65  A    between atoms: _146  and  _147
REMARK   66  A    between atoms: _150  and  _152
REMARK   67  A    between atoms: _152  and  _153
REMARK   68  A    between atoms: _155  and  _157
REMARK   69  A    between atoms: _157  and  _158
REMARK   70  A    between atoms: _160  and  _162
REMARK   71  A    between atoms: _162  and  _163
REMARK   72  A    between atoms: _162  and  _165
REMARK   73  A    between atoms: _165  and  _166
REMARK   74  A    between atoms: _172  and  _174
REMARK   75  A    between atoms: _174  and  _175
REMARK   76  A    between atoms: _174  and  _177
REMARK   77  A    between atoms: _177  and  _178
REMARK   78  A    between atoms: _181  and  _183
REMARK   79  A    between atoms: _183  and  _184
REMARK   80  A    between atoms: _183  and  _186
REMARK   81  A    between atoms: _186  and  _187
REMARK   82  A    between atoms: _190  and  _192
REMARK   83  A    between atoms: _192  and  _193
REMARK   84  A    between atoms: _192  and  _195
REMARK   85  A    between atoms: _195  and  _196
REMARK   86  A    between atoms: _200  and  _201
REMARK   87  A    between atoms: _206  and  _208
REMARK   88  A    between atoms: _208  and  _209
REMARK   89  A    between atoms: _208  and  _211
REMARK   90  A    between atoms: _211  and  _212
REMARK   91  A    between atoms: _215  and  _217
REMARK   92  A    between atoms: _217  and  _218
REMARK   93  A    between atoms: _217  and  _220
REMARK   94  A    between atoms: _220  and  _221
REMARK   95  A    between atoms: _226  and  _228
REMARK   96  A    between atoms: _228  and  _229
REMARK   97  A    between atoms: _228  and  _231
REMARK   98  A    between atoms: _234  and  _236
REMARK   99  A    between atoms: _236  and  _237
REMARK  100  A    between atoms: _236  and  _239
REMARK  101  A    between atoms: _239  and  _240
REMARK  102  A    between atoms: _243  and  _245
REMARK  103  A    between atoms: _245  and  _246
REMARK  104  A    between atoms: _248  and  _250
REMARK  105  A    between atoms: _250  and  _251
REMARK  106  A    between atoms: _250  and  _253
REMARK  107  A    between atoms: _253  and  _254
REMARK  108  A    between atoms: _254  and  _255
REMARK  109  A    between atoms: _255  and  _256
REMARK  110  A    between atoms: _265  and  _267
REMARK  111  A    between atoms: _267  and  _268
REMARK  112  A    between atoms: _267  and  _270
REMARK  113  A    between atoms: _270  and  _271
REMARK  114  A    between atoms: _276  and  _278
REMARK  115  A    between atoms: _278  and  _279
REMARK  116  A    between atoms: _278  and  _281
REMARK  117  A    between atoms: _281  and  _282
REMARK  118  A    between atoms: _282  and  _283
REMARK  119  A    between atoms: _283  and  _284
REMARK  120  A    between atoms: _293  and  _295
REMARK  121  A    between atoms: _295  and  _296
REMARK  122  A    between atoms: _295  and  _298
REMARK  123  A    between atoms: _298  and  _299
REMARK  124  A    between atoms: _302  and  _304
REMARK  125  A    between atoms: _304  and  _305
REMARK  126  A    between atoms: _304  and  _307
REMARK  127  A    between atoms: _307  and  _308
REMARK  128  A    between atoms: _311  and  _313
REMARK  129  A    between atoms: _313  and  _314
REMARK  130  A    between atoms: _313  and  _316
REMARK  131  A    between atoms: _316  and  _317
REMARK  132  A    between atoms: _320  and  _322
REMARK  133  A    between atoms: _322  and  _323
REMARK  134  A    between atoms: _322  and  _325
REMARK  135  A    between atoms: _325  and  _326
REMARK  136  A    between atoms: _329  and  _331
REMARK  137  A    between atoms: _331  and  _332
REMARK  138  A    between atoms: _331  and  _334
REMARK  139  A    between atoms: _334  and  _335
REMARK  140  A    between atoms: _338  and  _340
REMARK  141  A    between atoms: _340  and  _341
REMARK  142  A    between atoms: _343  and  _345
REMARK  143  A    between atoms: _345  and  _346
REMARK  144  A    between atoms: _349  and  _351
REMARK  145  A    between atoms: _351  and  _352
REMARK  146  A    between atoms: _351  and  _354
REMARK  147  A    between atoms: _354  and  _355
REMARK  148  A    between atoms: _358  and  _360
REMARK  149  A    between atoms: _360  and  _361
REMARK  150  A    between atoms: _360  and  _363
REMARK  151  A    between atoms: _363  and  _364
REMARK  152  A    between atoms: _367  and  _369
REMARK  153  A    between atoms: _369  and  _370
REMARK  154  A    between atoms: _369  and  _372
REMARK  155  A    between atoms: _372  and  _373
REMARK  156  A    between atoms: _376  and  _378
REMARK  157  A    between atoms: _378  and  _379
REMARK  158  A    between atoms: _378  and  _381
REMARK  159  A    between atoms: _384  and  _386
REMARK  160  A    between atoms: _386  and  _387
REMARK  161  A    between atoms: _386  and  _389
REMARK  162  A    between atoms: _389  and  _390
REMARK  163  A    between atoms: _390  and  _391
REMARK  164  A    between atoms: _391  and  _392
REMARK  165  A    between atoms: _392  and  _393
REMARK  166  A    between atoms: _397  and  _399
REMARK  167  A    between atoms: _399  and  _400
REMARK  168  A    between atoms: _399  and  _402
REMARK  169  A    between atoms: _402  and  _403
REMARK  170  A    between atoms: _403  and  _404
REMARK  171  A    between atoms: _406  and  _408
REMARK  172  A    between atoms: _408  and  _409
REMARK  173  A    between atoms: _408  and  _411
REMARK  174  A    between atoms: _411  and  _412
REMARK  175  A    between atoms: _415  and  _417
REMARK  176  A    between atoms: _417  and  _418
REMARK  177  A    between atoms: _420  and  _422
REMARK  178  A    between atoms: _422  and  _423
REMARK  179  A    between atoms: _425  and  _427
REMARK  180  A    between atoms: _427  and  _428
REMARK  181  A    between atoms: _427  and  _430
REMARK  182  A    between atoms: _430  and  _431
REMARK  183  A    between atoms: _434  and  _436
REMARK  184  A    between atoms: _436  and  _437
REMARK  185  A    between atoms: _439  and  _441
REMARK  186  A    between atoms: _441  and  _442
REMARK  187  A    between atoms: _444  and  _446
REMARK  188  A    between atoms: _446  and  _447
REMARK  189  A    between atoms: _446  and  _449
REMARK  190  A    between atoms: _449  and  _450
REMARK  191  A    between atoms: _456  and  _458
REMARK  192  A    between atoms: _458  and  _459
REMARK  193  A    between atoms: _458  and  _461
REMARK  194  A    between atoms: _461  and  _462
REMARK  195  A    between atoms: _465  and  _467
REMARK  196  A    between atoms: _467  and  _468
REMARK  197  A    between atoms: _467  and  _470
REMARK  198  A    between atoms: _473  and  _475
REMARK  199  A    between atoms: _475  and  _476
REMARK  200  A    between atoms: _475  and  _478
REMARK  201  A    between atoms: _478  and  _479
REMARK  202  A    between atoms: _482  and  _484
REMARK  203  A    between atoms: _484  and  _485
REMARK  204  A    between atoms: _484  and  _487
REMARK  205  A    between atoms: _485  and  _486
REMARK  206  A    between atoms: _485  and  _491
REMARK  207  A    between atoms: _487  and  _488
REMARK  208  A    between atoms: _492  and  _493
REMARK  209  A    between atoms: _498  and  _500
REMARK  210  A    between atoms: _500  and  _501
REMARK  211  A    between atoms: _500  and  _503
REMARK  212  A    between atoms: _503  and  _504
REMARK  213  A    between atoms: _507  and  _509
REMARK  214  A    between atoms: _509  and  _510
REMARK  215  A    between atoms: _509  and  _512
REMARK  216  A    between atoms: _512  and  _513
REMARK  217  A    between atoms: _518  and  _520
REMARK  218  A    between atoms: _520  and  _521
REMARK  219  A    between atoms: _520  and  _523
REMARK  220  A    between atoms: _526  and  _528
REMARK  221  A    between atoms: _528  and  _529
REMARK  222  A    between atoms: _528  and  _531
REMARK  223  A    between atoms: _531  and  _532
REMARK  224  A    between atoms: _535  and  _537
REMARK  225  A    between atoms: _537  and  _538
REMARK  226  A    between atoms: _540  and  _542
REMARK  227  A    between atoms: _542  and  _543
REMARK  228  A    between atoms: _542  and  _545
REMARK  229  A    between atoms: _545  and  _546
REMARK  230  A    between atoms: _546  and  _547
REMARK  231  A    between atoms: _547  and  _548
REMARK                            x       y       z     vdW  Elec       q    Type
REMARK                         _______ _______ _______ _____ _____    ______ ____
ROOT
ATOM      1  O   HOH     1      22.285  15.589   4.756  0.00  0.00    +0.000 OA
ENDROOT
TORSDOF 0
REMARK  Name = ../refined-set-2016/4cps/4cps_pocket.pdb
REMARK  231 active torsions:
REMARK  status: ('A' for Active; 'I' for Inactive)
REMARK    1  A    between atoms: _1  and  _3
REMARK    2  A    between atoms: _3  and  _4
REMARK    3  A    between atoms: _3  and  _6
REMARK    4  A    between atoms: _6  and  _7
REMARK    5  A    between atoms: _7  and  _8
REMARK    6  A    between atoms: _8  and  _9
REMARK    7  A    between atoms: _18  and  _20
REMARK    8  A    between atoms: _20  and  _21
REMARK    9  A    between atoms: _20  and  _23
REMARK   10  A    between atoms: _23  and  _24
REMARK   11  A    between atoms: _27  and  _29
REMARK   12  A    between atoms: _29  and  _30
REMARK   13  A    between atoms: _29  and  _32
REMARK   14  A    between atoms: _32  and  _33
REMARK   15  A    between atoms: _36  and  _38
REMARK   16  A    between atoms: _38  and  _39
REMARK   17  A    between atoms: _38  and  _41
REMARK   18  A    between atoms: _41  and  _42
REMARK   19  A    between atoms: _45  and  _47
REMARK   20  A    between atoms: _47  and  _48
REMARK   21  A    between atoms: _47  and  _50
REMARK   22  A    between atoms: _50  and  _51
REMARK   23  A    between atoms: _54  and  _56
REMARK   24  A    between atoms: _56  and  _57
REMARK   25  A    between atoms: _59  and  _61
REMARK   26  A    between atoms: _61  and  _62
REMARK   27  A    between atoms: _65  and  _67
REMARK   28  A    between atoms: _67  and  _68
REMARK   29  A    between atoms: _67  and  _70
REMARK   30  A    between atoms: _70  and  _71
REMARK   31  A    between atoms: _74  and  _76
REMARK   32  A    between atoms: _76  and  _77
REMARK   33  A    between atoms: _76  and  _79
REMARK   34  A    between atoms: _79  and  _80
REMARK   35  A    between atoms: _83  and  _85
REMARK   36  A    between atoms: _85  and  _86
REMARK   37  A    between atoms: _85  and  _88
REMARK   38  A    between atoms: _88  and  _89
REMARK   39  A    between atoms: _92  and  _94
REMARK   40  A    between atoms: _94  and  _95
REMARK   41  A    between atoms: _94  and  _97
REMARK   42  A    between atoms: _100  and  _102
REMARK   43  A    between atoms: _102  and  _103
REMARK   44  A    between atoms: _102  and  _105
REMARK   45  A    between atoms: _105  and  _106
REMARK   46  A    between atoms: _106  and  _107
REMARK   47  A    between atoms: _107  and  _108
REMARK   48  A    between atoms: _108  and  _109
REMARK   49  A    between atoms: _113  and  _115
REMARK   50  A    between atoms: _115  and  _116
REMARK   51  A    between atoms: _115  and  _118
REMARK   52  A    between atoms: _118  and  _119
REMARK   53  A    between atoms: _119  and  _120
REMARK   54  A    between atoms: _122  and  _124
REMARK   55  A    between atoms: _124  and  _125
REMARK   56  A    between atoms: _124  and  _127
REMARK   57  A    between atoms: _127  and  _128
REMARK   58  A    between atoms: _131  and  _133
REMARK   59  A    between atoms: _133  and  _134
REMARK   60  A    between atoms: _136  and  _138
REMARK   61  A    between atoms: _138  and  _139
REMARK   62  A    between atoms: _141  and  _143
REMARK   63  A    between atoms: _143  and  _144
REMARK   64  A    between atoms: _143  and  _146
REMARK   65  A    between atoms: _146  and  _147
REMARK   66  A    between atoms: _150  and  _152
REMARK   67  A    between atoms: _152  and  _153
REMARK   68  A    between atoms: _155  and  _157
REMARK   69  A    between atoms: _157  and  _158
REMARK   70  A    between atoms: _160  and  _162
REMARK   71  A    between atoms: _162  and  _163
REMARK   72  A    between atoms: _162  and  _165
REMARK   73  A    between atoms: _165  and  _166
REMARK   74  A    between atoms: _172  and  _174
REMARK   75  A    between atoms: _174  and  _175
REMARK   76  A    between atoms: _174  and  _177
REMARK   77  A    between atoms: _177  and  _178
REMARK   78  A    between atoms: _181  and  _183
REMARK   79  A    between atoms: _183  and  _184
REMARK   80  A    between atoms: _183  and  _186
REMARK   81  A    between atoms: _186  and  _187
REMARK   82  A    between atoms: _190  and  _192
REMARK   83  A    between atoms: _192  and  _193
REMARK   84  A    between atoms: _192  and  _195
REMARK   85  A    between atoms: _195  and  _196
REMARK   86  A    between atoms: _200  and  _201
REMARK   87  A    between atoms: _206  and  _208
REMARK   88  A    between atoms: _208  and  _209
REMARK   89  A    between atoms: _208  and  _211
REMARK   90  A    between atoms: _211  and  _212
REMARK   91  A    between atoms: _215  and  _217
REMARK   92  A    between atoms: _217  and  _218
REMARK   93  A    between atoms: _217  and  _220
REMARK   94  A    between atoms: _220  and  _221
REMARK   95  A    between atoms: _226  and  _228
REMARK   96  A    between atoms: _228  and  _229
REMARK   97  A    between atoms: _228  and  _231
REMARK   98  A    between atoms: _234  and  _236
REMARK   99  A    between atoms: _236  and  _237
REMARK  100  A    between atoms: _236  and  _239
REMARK  101  A    between atoms: _239  and  _240
REMARK  102  A    between atoms: _243  and  _245
REMARK  103  A    between atoms: _245  and  _246
REMARK  104  A    between atoms: _248  and  _250
REMARK  105  A    between atoms: _250  and  _251
REMARK  106  A    between atoms: _250  and  _253
REMARK  107  A    between atoms: _253  and  _254
REMARK  108  A    between atoms: _254  and  _255
REMARK  109  A    between atoms: _255  and  _256
REMARK  110  A    between atoms: _265  and  _267
REMARK  111  A    between atoms: _267  and  _268
REMARK  112  A    between atoms: _267  and  _270
REMARK  113  A    between atoms: _270  and  _271
REMARK  114  A    between atoms: _276  and  _278
REMARK  115  A    between atoms: _278  and  _279
REMARK  116  A    between atoms: _278  and  _281
REMARK  117  A    between atoms: _281  and  _282
REMARK  118  A    between atoms: _282  and  _283
REMARK  119  A    between atoms: _283  and  _284
REMARK  120  A    between atoms: _293  and  _295
REMARK  121  A    between atoms: _295  and  _296
REMARK  122  A    between atoms: _295  and  _298
REMARK  123  A    between atoms: _298  and  _299
REMARK  124  A    between atoms: _302  and  _304
REMARK  125  A    between atoms: _304  and  _305
REMARK  126  A    between atoms: _304  and  _307
REMARK  127  A    between atoms: _307  and  _308
REMARK  128  A    between atoms: _311  and  _313
REMARK  129  A    between atoms: _313  and  _314
REMARK  130  A    between atoms: _313  and  _316
REMARK  131  A    between atoms: _316  and  _317
REMARK  132  A    between atoms: _320  and  _322
REMARK  133  A    between atoms: _322  and  _323
REMARK  134  A    between atoms: _322  and  _325
REMARK  135  A    between atoms: _325  and  _326
REMARK  136  A    between atoms: _329  and  _331
REMARK  137  A    between atoms: _331  and  _332
REMARK  138  A    between atoms: _331  and  _334
REMARK  139  A    between atoms: _334  and  _335
REMARK  140  A    between atoms: _338  and  _340
REMARK  141  A    between atoms: _340  and  _341
REMARK  142  A    between atoms: _343  and  _345
REMARK  143  A    between atoms: _345  and  _346
REMARK  144  A    between atoms: _349  and  _351
REMARK  145  A    between atoms: _351  and  _352
REMARK  146  A    between atoms: _351  and  _354
REMARK  147  A    between atoms: _354  and  _355
REMARK  148  A    between atoms: _358  and  _360
REMARK  149  A    between atoms: _360  and  _361
REMARK  150  A    between atoms: _360  and  _363
REMARK  151  A    between atoms: _363  and  _364
REMARK  152  A    between atoms: _367  and  _369
REMARK  153  A    between atoms: _369  and  _370
REMARK  154  A    between atoms: _369  and  _372
REMARK  155  A    between atoms: _372  and  _373
REMARK  156  A    between atoms: _376  and  _378
REMARK  157  A    between atoms: _378  and  _379
REMARK  158  A    between atoms: _378  and  _381
REMARK  159  A    between atoms: _384  and  _386
REMARK  160  A    between atoms: _386  and  _387
REMARK  161  A    between atoms: _386  and  _389
REMARK  162  A    between atoms: _389  and  _390
REMARK  163  A    between atoms: _390  and  _391
REMARK  164  A    between atoms: _391  and  _392
REMARK  165  A    between atoms: _392  and  _393
REMARK  166  A    between atoms: _397  and  _399
REMARK  167  A    between atoms: _399  and  _400
REMARK  168  A    between atoms: _399  and  _402
REMARK  169  A    between atoms: _402  and  _403
REMARK  170  A    between atoms: _403  and  _404
REMARK  171  A    between atoms: _406  and  _408
REMARK  172  A    between atoms: _408  and  _409
REMARK  173  A    between atoms: _408  and  _411
REMARK  174  A    between atoms: _411  and  _412
REMARK  175  A    between atoms: _415  and  _417
REMARK  176  A    between atoms: _417  and  _418
REMARK  177  A    between atoms: _420  and  _422
REMARK  178  A    between atoms: _422  and  _423
REMARK  179  A    between atoms: _425  and  _427
REMARK  180  A    between atoms: _427  and  _428
REMARK  181  A    between atoms: _427  and  _430
REMARK  182  A    between atoms: _430  and  _431
REMARK  183  A    between atoms: _434  and  _436
REMARK  184  A    between atoms: _436  and  _437
REMARK  185  A    between atoms: _439  and  _441
REMARK  186  A    between atoms: _441  and  _442
REMARK  187  A    between atoms: _444  and  _446
REMARK  188  A    between atoms: _446  and  _447
REMARK  189  A    between atoms: _446  and  _449
REMARK  190  A    between atoms: _449  and  _450
REMARK  191  A    between atoms: _456  and  _458
REMARK  192  A    between atoms: _458  and  _459
REMARK  193  A    between atoms: _458  and  _461
REMARK  194  A    between atoms: _461  and  _462
REMARK  195  A    between atoms: _465  and  _467
REMARK  196  A    between atoms: _467  and  _468
REMARK  197  A    between atoms: _467  and  _470
REMARK  198  A    between atoms: _473  and  _475
REMARK  199  A    between atoms: _475  and  _476
REMARK  200  A    between atoms: _475  and  _478
REMARK  201  A    between atoms: _478  and  _479
REMARK  202  A    between atoms: _482  and  _484
REMARK  203  A    between atoms: _484  and  _485
REMARK  204  A    between atoms: _484  and  _487
REMARK  205  A    between atoms: _485  and  _486
REMARK  206  A    between atoms: _485  and  _491
REMARK  207  A    between atoms: _487  and  _488
REMARK  208  A    between atoms: _492  and  _493
REMARK  209  A    between atoms: _498  and  _500
REMARK  210  A    between atoms: _500  and  _501
REMARK  211  A    between atoms: _500  and  _503
REMARK  212  A    between atoms: _503  and  _504
REMARK  213  A    between atoms: _507  and  _509
REMARK  214  A    between atoms: _509  and  _510
REMARK  215  A    between atoms: _509  and  _512
REMARK  216  A    between atoms: _512  and  _513
REMARK  217  A    between atoms: _518  and  _520
REMARK  218  A    between atoms: _520  and  _521
REMARK  219  A    between atoms: _520  and  _523
REMARK  220  A    between atoms: _526  and  _528
REMARK  221  A    between atoms: _528  and  _529
REMARK  222  A    between atoms: _528  and  _531
REMARK  223  A    between atoms: _531  and  _532
REMARK  224  A    between atoms: _535  and  _537
REMARK  225  A    between atoms: _537  and  _538
REMARK  226  A    between atoms: _540  and  _542
REMARK  227  A    between atoms: _542  and  _543
REMARK  228  A    between atoms: _542  and  _545
REMARK  229  A    between atoms: _545  and  _546
REMARK  230  A    between atoms: _546  and  _547
REMARK  231  A    between atoms: _547  and  _548
REMARK                            x       y       z     vdW  Elec       q    Type
REMARK                         _______ _______ _______ _____ _____    ______ ____
ROOT
ATOM      1  O   HOH     1      20.101  16.123  -3.723  0.00  0.00    +0.000 OA
ENDROOT
TORSDOF 0
REMARK  Name = ../refined-set-2016/4cps/4cps_pocket.pdb
REMARK  231 active torsions:
REMARK  status: ('A' for Active; 'I' for Inactive)
REMARK    1  A    between atoms: _1  and  _3
REMARK    2  A    between atoms: _3  and  _4
REMARK    3  A    between atoms: _3  and  _6
REMARK    4  A    between atoms: _6  and  _7
REMARK    5  A    between atoms: _7  and  _8
REMARK    6  A    between atoms: _8  and  _9
REMARK    7  A    between atoms: _18  and  _20
REMARK    8  A    between atoms: _20  and  _21
REMARK    9  A    between atoms: _20  and  _23
REMARK   10  A    between atoms: _23  and  _24
REMARK   11  A    between atoms: _27  and  _29
REMARK   12  A    between atoms: _29  and  _30
REMARK   13  A    between atoms: _29  and  _32
REMARK   14  A    between atoms: _32  and  _33
REMARK   15  A    between atoms: _36  and  _38
REMARK   16  A    between atoms: _38  and  _39
REMARK   17  A    between atoms: _38  and  _41
REMARK   18  A    between atoms: _41  and  _42
REMARK   19  A    between atoms: _45  and  _47
REMARK   20  A    between atoms: _47  and  _48
REMARK   21  A    between atoms: _47  and  _50
REMARK   22  A    between atoms: _50  and  _51
REMARK   23  A    between atoms: _54  and  _56
REMARK   24  A    between atoms: _56  and  _57
REMARK   25  A    between atoms: _59  and  _61
REMARK   26  A    between atoms: _61  and  _62
REMARK   27  A    between atoms: _65  and  _67
REMARK   28  A    between atoms: _67  and  _68
REMARK   29  A    between atoms: _67  and  _70
REMARK   30  A    between atoms: _70  and  _71
REMARK   31  A    between atoms: _74  and  _76
REMARK   32  A    between atoms: _76  and  _77
REMARK   33  A    between atoms: _76  and  _79
REMARK   34  A    between atoms: _79  and  _80
REMARK   35  A    between atoms: _83  and  _85
REMARK   36  A    between atoms: _85  and  _86
REMARK   37  A    between atoms: _85  and  _88
REMARK   38  A    between atoms: _88  and  _89
REMARK   39  A    between atoms: _92  and  _94
REMARK   40  A    between atoms: _94  and  _95
REMARK   41  A    between atoms: _94  and  _97
REMARK   42  A    between atoms: _100  and  _102
REMARK   43  A    between atoms: _102  and  _103
REMARK   44  A    between atoms: _102  and  _105
REMARK   45  A    between atoms: _105  and  _106
REMARK   46  A    between atoms: _106  and  _107
REMARK   47  A    between atoms: _107  and  _108
REMARK   48  A    between atoms: _108  and  _109
REMARK   49  A    between atoms: _113  and  _115
REMARK   50  A    between atoms: _115  and  _116
REMARK   51  A    between atoms: _115  and  _118
REMARK   52  A    between atoms: _118  and  _119
REMARK   53  A    between atoms: _119  and  _120
REMARK   54  A    between atoms: _122  and  _124
REMARK   55  A    between atoms: _124  and  _125
REMARK   56  A    between atoms: _124  and  _127
REMARK   57  A    between atoms: _127  and  _128
REMARK   58  A    between atoms: _131  and  _133
REMARK   59  A    between atoms: _133  and  _134
REMARK   60  A    between atoms: _136  and  _138
REMARK   61  A    between atoms: _138  and  _139
REMARK   62  A    between atoms: _141  and  _143
REMARK   63  A    between atoms: _143  and  _144
REMARK   64  A    between atoms: _143  and  _146
REMARK   65  A    between atoms: _146  and  _147
REMARK   66  A    between atoms: _150  and  _152
REMARK   67  A    between atoms: _152  and  _153
REMARK   68  A    between atoms: _155  and  _157
REMARK   69  A    between atoms: _157  and  _158
REMARK   70  A    between atoms: _160  and  _162
REMARK   71  A    between atoms: _162  and  _163
REMARK   72  A    between atoms: _162  and  _165
REMARK   73  A    between atoms: _165  and  _166
REMARK   74  A    between atoms: _172  and  _174
REMARK   75  A    between atoms: _174  and  _175
REMARK   76  A    between atoms: _174  and  _177
REMARK   77  A    between atoms: _177  and  _178
REMARK   78  A    between atoms: _181  and  _183
REMARK   79  A    between atoms: _183  and  _184
REMARK   80  A    between atoms: _183  and  _186
REMARK   81  A    between atoms: _186  and  _187
REMARK   82  A    between atoms: _190  and  _192
REMARK   83  A    between atoms: _192  and  _193
REMARK   84  A    between atoms: _192  and  _195
REMARK   85  A    between atoms: _195  and  _196
REMARK   86  A    between atoms: _200  and  _201
REMARK   87  A    between atoms: _206  and  _208
REMARK   88  A    between atoms: _208  and  _209
REMARK   89  A    between atoms: _208  and  _211
REMARK   90  A    between atoms: _211  and  _212
REMARK   91  A    between atoms: _215  and  _217
REMARK   92  A    between atoms: _217  and  _218
REMARK   93  A    between atoms: _217  and  _220
REMARK   94  A    between atoms: _220  and  _221
REMARK   95  A    between atoms: _226  and  _228
REMARK   96  A    between atoms: _228  and  _229
REMARK   97  A    between atoms: _228  and  _231
REMARK   98  A    between atoms: _234  and  _236
REMARK   99  A    between atoms: _236  and  _237
REMARK  100  A    between atoms: _236  and  _239
REMARK  101  A    between atoms: _239  and  _240
REMARK  102  A    between atoms: _243  and  _245
REMARK  103  A    between atoms: _245  and  _246
REMARK  104  A    between atoms: _248  and  _250
REMARK  105  A    between atoms: _250  and  _251
REMARK  106  A    between atoms: _250  and  _253
REMARK  107  A    between atoms: _253  and  _254
REMARK  108  A    between atoms: _254  and  _255
REMARK  109  A    between atoms: _255  and  _256
REMARK  110  A    between atoms: _265  and  _267
REMARK  111  A    between atoms: _267  and  _268
REMARK  112  A    between atoms: _267  and  _270
REMARK  113  A    between atoms: _270  and  _271
REMARK  114  A    between atoms: _276  and  _278
REMARK  115  A    between atoms: _278  and  _279
REMARK  116  A    between atoms: _278  and  _281
REMARK  117  A    between atoms: _281  and  _282
REMARK  118  A    between atoms: _282  and  _283
REMARK  119  A    between atoms: _283  and  _284
REMARK  120  A    between atoms: _293  and  _295
REMARK  121  A    between atoms: _295  and  _296
REMARK  122  A    between atoms: _295  and  _298
REMARK  123  A    between atoms: _298  and  _299
REMARK  124  A    between atoms: _302  and  _304
REMARK  125  A    between atoms: _304  and  _305
REMARK  126  A    between atoms: _304  and  _307
REMARK  127  A    between atoms: _307  and  _308
REMARK  128  A    between atoms: _311  and  _313
REMARK  129  A    between atoms: _313  and  _314
REMARK  130  A    between atoms: _313  and  _316
REMARK  131  A    between atoms: _316  and  _317
REMARK  132  A    between atoms: _320  and  _322
REMARK  133  A    between atoms: _322  and  _323
REMARK  134  A    between atoms: _322  and  _325
REMARK  135  A    between atoms: _325  and  _326
REMARK  136  A    between atoms: _329  and  _331
REMARK  137  A    between atoms: _331  and  _332
REMARK  138  A    between atoms: _331  and  _334
REMARK  139  A    between atoms: _334  and  _335
REMARK  140  A    between atoms: _338  and  _340
REMARK  141  A    between atoms: _340  and  _341
REMARK  142  A    between atoms: _343  and  _345
REMARK  143  A    between atoms: _345  and  _346
REMARK  144  A    between atoms: _349  and  _351
REMARK  145  A    between atoms: _351  and  _352
REMARK  146  A    between atoms: _351  and  _354
REMARK  147  A    between atoms: _354  and  _355
REMARK  148  A    between atoms: _358  and  _360
REMARK  149  A    between atoms: _360  and  _361
REMARK  150  A    between atoms: _360  and  _363
REMARK  151  A    between atoms: _363  and  _364
REMARK  152  A    between atoms: _367  and  _369
REMARK  153  A    between atoms: _369  and  _370
REMARK  154  A    between atoms: _369  and  _372
REMARK  155  A    between atoms: _372  and  _373
REMARK  156  A    between atoms: _376  and  _378
REMARK  157  A    between atoms: _378  and  _379
REMARK  158  A    between atoms: _378  and  _381
REMARK  159  A    between atoms: _384  and  _386
REMARK  160  A    between atoms: _386  and  _387
REMARK  161  A    between atoms: _386  and  _389
REMARK  162  A    between atoms: _389  and  _390
REMARK  163  A    between atoms: _390  and  _391
REMARK  164  A    between atoms: _391  and  _392
REMARK  165  A    between atoms: _392  and  _393
REMARK  166  A    between atoms: _397  and  _399
REMARK  167  A    between atoms: _399  and  _400
REMARK  168  A    between atoms: _399  and  _402
REMARK  169  A    between atoms: _402  and  _403
REMARK  170  A    between atoms: _403  and  _404
REMARK  171  A    between atoms: _406  and  _408
REMARK  172  A    between atoms: _408  and  _409
REMARK  173  A    between atoms: _408  and  _411
REMARK  174  A    between atoms: _411  and  _412
REMARK  175  A    between atoms: _415  and  _417
REMARK  176  A    between atoms: _417  and  _418
REMARK  177  A    between atoms: _420  and  _422
REMARK  178  A    between atoms: _422  and  _423
REMARK  179  A    between atoms: _425  and  _427
REMARK  180  A    between atoms: _427  and  _428
REMARK  181  A    between atoms: _427  and  _430
REMARK  182  A    between atoms: _430  and  _431
REMARK  183  A    between atoms: _434  and  _436
REMARK  184  A    between atoms: _436  and  _437
REMARK  185  A    between atoms: _439  and  _441
REMARK  186  A    between atoms: _441  and  _442
REMARK  187  A    between atoms: _444  and  _446
REMARK  188  A    between atoms: _446  and  _447
REMARK  189  A    between atoms: _446  and  _449
REMARK  190  A    between atoms: _449  and  _450
REMARK  191  A    between atoms: _456  and  _458
REMARK  192  A    between atoms: _458  and  _459
REMARK  193  A    between atoms: _458  and  _461
REMARK  194  A    between atoms: _461  and  _462
REMARK  195  A    between atoms: _465  and  _467
REMARK  196  A    between atoms: _467  and  _468
REMARK  197  A    between atoms: _467  and  _470
REMARK  198  A    between atoms: _473  and  _475
REMARK  199  A    between atoms: _475  and  _476
REMARK  200  A    between atoms: _475  and  _478
REMARK  201  A    between atoms: _478  and  _479
REMARK  202  A    between atoms: _482  and  _484
REMARK  203  A    between atoms: _484  and  _485
REMARK  204  A    between atoms: _484  and  _487
REMARK  205  A    between atoms: _485  and  _486
REMARK  206  A    between atoms: _485  and  _491
REMARK  207  A    between atoms: _487  and  _488
REMARK  208  A    between atoms: _492  and  _493
REMARK  209  A    between atoms: _498  and  _500
REMARK  210  A    between atoms: _500  and  _501
REMARK  211  A    between atoms: _500  and  _503
REMARK  212  A    between atoms: _503  and  _504
REMARK  213  A    between atoms: _507  and  _509
REMARK  214  A    between atoms: _509  and  _510
REMARK  215  A    between atoms: _509  and  _512
REMARK  216  A    between atoms: _512  and  _513
REMARK  217  A    between atoms: _518  and  _520
REMARK  218  A    between atoms: _520  and  _521
REMARK  219  A    between atoms: _520  and  _523
REMARK  220  A    between atoms: _526  and  _528
REMARK  221  A    between atoms: _528  and  _529
REMARK  222  A    between atoms: _528  and  _531
REMARK  223  A    between atoms: _531  and  _532
REMARK  224  A    between atoms: _535  and  _537
REMARK  225  A    between atoms: _537  and  _538
REMARK  226  A    between atoms: _540  and  _542
REMARK  227  A    between atoms: _542  and  _543
REMARK  228  A    between atoms: _542  and  _545
REMARK  229  A    between atoms: _545  and  _546
REMARK  230  A    between atoms: _546  and  _547
REMARK  231  A    between atoms: _547  and  _548
REMARK                            x       y       z     vdW  Elec       q    Type
REMARK                         _______ _______ _______ _____ _____    ______ ____
ROOT
ATOM      1  O   HOH     1      18.158  14.855   6.091  0.00  0.00    +0.000 OA
ENDROOT
TORSDOF 0
REMARK  Name = ../refined-set-2016/4cps/4cps_pocket.pdb
REMARK  231 active torsions:
REMARK  status: ('A' for Active; 'I' for Inactive)
REMARK    1  A    between atoms: _1  and  _3
REMARK    2  A    between atoms: _3  and  _4
REMARK    3  A    between atoms: _3  and  _6
REMARK    4  A    between atoms: _6  and  _7
REMARK    5  A    between atoms: _7  and  _8
REMARK    6  A    between atoms: _8  and  _9
REMARK    7  A    between atoms: _18  and  _20
REMARK    8  A    between atoms: _20  and  _21
REMARK    9  A    between atoms: _20  and  _23
REMARK   10  A    between atoms: _23  and  _24
REMARK   11  A    between atoms: _27  and  _29
REMARK   12  A    between atoms: _29  and  _30
REMARK   13  A    between atoms: _29  and  _32
REMARK   14  A    between atoms: _32  and  _33
REMARK   15  A    between atoms: _36  and  _38
REMARK   16  A    between atoms: _38  and  _39
REMARK   17  A    between atoms: _38  and  _41
REMARK   18  A    between atoms: _41  and  _42
REMARK   19  A    between atoms: _45  and  _47
REMARK   20  A    between atoms: _47  and  _48
REMARK   21  A    between atoms: _47  and  _50
REMARK   22  A    between atoms: _50  and  _51
REMARK   23  A    between atoms: _54  and  _56
REMARK   24  A    between atoms: _56  and  _57
REMARK   25  A    between atoms: _59  and  _61
REMARK   26  A    between atoms: _61  and  _62
REMARK   27  A    between atoms: _65  and  _67
REMARK   28  A    between atoms: _67  and  _68
REMARK   29  A    between atoms: _67  and  _70
REMARK   30  A    between atoms: _70  and  _71
REMARK   31  A    between atoms: _74  and  _76
REMARK   32  A    between atoms: _76  and  _77
REMARK   33  A    between atoms: _76  and  _79
REMARK   34  A    between atoms: _79  and  _80
REMARK   35  A    between atoms: _83  and  _85
REMARK   36  A    between atoms: _85  and  _86
REMARK   37  A    between atoms: _85  and  _88
REMARK   38  A    between atoms: _88  and  _89
REMARK   39  A    between atoms: _92  and  _94
REMARK   40  A    between atoms: _94  and  _95
REMARK   41  A    between atoms: _94  and  _97
REMARK   42  A    between atoms: _100  and  _102
REMARK   43  A    between atoms: _102  and  _103
REMARK   44  A    between atoms: _102  and  _105
REMARK   45  A    between atoms: _105  and  _106
REMARK   46  A    between atoms: _106  and  _107
REMARK   47  A    between atoms: _107  and  _108
REMARK   48  A    between atoms: _108  and  _109
REMARK   49  A    between atoms: _113  and  _115
REMARK   50  A    between atoms: _115  and  _116
REMARK   51  A    between atoms: _115  and  _118
REMARK   52  A    between atoms: _118  and  _119
REMARK   53  A    between atoms: _119  and  _120
REMARK   54  A    between atoms: _122  and  _124
REMARK   55  A    between atoms: _124  and  _125
REMARK   56  A    between atoms: _124  and  _127
REMARK   57  A    between atoms: _127  and  _128
REMARK   58  A    between atoms: _131  and  _133
REMARK   59  A    between atoms: _133  and  _134
REMARK   60  A    between atoms: _136  and  _138
REMARK   61  A    between atoms: _138  and  _139
REMARK   62  A    between atoms: _141  and  _143
REMARK   63  A    between atoms: _143  and  _144
REMARK   64  A    between atoms: _143  and  _146
REMARK   65  A    between atoms: _146  and  _147
REMARK   66  A    between atoms: _150  and  _152
REMARK   67  A    between atoms: _152  and  _153
REMARK   68  A    between atoms: _155  and  _157
REMARK   69  A    between atoms: _157  and  _158
REMARK   70  A    between atoms: _160  and  _162
REMARK   71  A    between atoms: _162  and  _163
REMARK   72  A    between atoms: _162  and  _165
REMARK   73  A    between atoms: _165  and  _166
REMARK   74  A    between atoms: _172  and  _174
REMARK   75  A    between atoms: _174  and  _175
REMARK   76  A    between atoms: _174  and  _177
REMARK   77  A    between atoms: _177  and  _178
REMARK   78  A    between atoms: _181  and  _183
REMARK   79  A    between atoms: _183  and  _184
REMARK   80  A    between atoms: _183  and  _186
REMARK   81  A    between atoms: _186  and  _187
REMARK   82  A    between atoms: _190  and  _192
REMARK   83  A    between atoms: _192  and  _193
REMARK   84  A    between atoms: _192  and  _195
REMARK   85  A    between atoms: _195  and  _196
REMARK   86  A    between atoms: _200  and  _201
REMARK   87  A    between atoms: _206  and  _208
REMARK   88  A    between atoms: _208  and  _209
REMARK   89  A    between atoms: _208  and  _211
REMARK   90  A    between atoms: _211  and  _212
REMARK   91  A    between atoms: _215  and  _217
REMARK   92  A    between atoms: _217  and  _218
REMARK   93  A    between atoms: _217  and  _220
REMARK   94  A    between atoms: _220  and  _221
REMARK   95  A    between atoms: _226  and  _228
REMARK   96  A    between atoms: _228  and  _229
REMARK   97  A    between atoms: _228  and  _231
REMARK   98  A    between atoms: _234  and  _236
REMARK   99  A    between atoms: _236  and  _237
REMARK  100  A    between atoms: _236  and  _239
REMARK  101  A    between atoms: _239  and  _240
REMARK  102  A    between atoms: _243  and  _245
REMARK  103  A    between atoms: _245  and  _246
REMARK  104  A    between atoms: _248  and  _250
REMARK  105  A    between atoms: _250  and  _251
REMARK  106  A    between atoms: _250  and  _253
REMARK  107  A    between atoms: _253  and  _254
REMARK  108  A    between atoms: _254  and  _255
REMARK  109  A    between atoms: _255  and  _256
REMARK  110  A    between atoms: _265  and  _267
REMARK  111  A    between atoms: _267  and  _268
REMARK  112  A    between atoms: _267  and  _270
REMARK  113  A    between atoms: _270  and  _271
REMARK  114  A    between atoms: _276  and  _278
REMARK  115  A    between atoms: _278  and  _279
REMARK  116  A    between atoms: _278  and  _281
REMARK  117  A    between atoms: _281  and  _282
REMARK  118  A    between atoms: _282  and  _283
REMARK  119  A    between atoms: _283  and  _284
REMARK  120  A    between atoms: _293  and  _295
REMARK  121  A    between atoms: _295  and  _296
REMARK  122  A    between atoms: _295  and  _298
REMARK  123  A    between atoms: _298  and  _299
REMARK  124  A    between atoms: _302  and  _304
REMARK  125  A    between atoms: _304  and  _305
REMARK  126  A    between atoms: _304  and  _307
REMARK  127  A    between atoms: _307  and  _308
REMARK  128  A    between atoms: _311  and  _313
REMARK  129  A    between atoms: _313  and  _314
REMARK  130  A    between atoms: _313  and  _316
REMARK  131  A    between atoms: _316  and  _317
REMARK  132  A    between atoms: _320  and  _322
REMARK  133  A    between atoms: _322  and  _323
REMARK  134  A    between atoms: _322  and  _325
REMARK  135  A    between atoms: _325  and  _326
REMARK  136  A    between atoms: _329  and  _331
REMARK  137  A    between atoms: _331  and  _332
REMARK  138  A    between atoms: _331  and  _334
REMARK  139  A    between atoms: _334  and  _335
REMARK  140  A    between atoms: _338  and  _340
REMARK  141  A    between atoms: _340  and  _341
REMARK  142  A    between atoms: _343  and  _345
REMARK  143  A    between atoms: _345  and  _346
REMARK  144  A    between atoms: _349  and  _351
REMARK  145  A    between atoms: _351  and  _352
REMARK  146  A    between atoms: _351  and  _354
REMARK  147  A    between atoms: _354  and  _355
REMARK  148  A    between atoms: _358  and  _360
REMARK  149  A    between atoms: _360  and  _361
REMARK  150  A    between atoms: _360  and  _363
REMARK  151  A    between atoms: _363  and  _364
REMARK  152  A    between atoms: _367  and  _369
REMARK  153  A    between atoms: _369  and  _370
REMARK  154  A    between atoms: _369  and  _372
REMARK  155  A    between atoms: _372  and  _373
REMARK  156  A    between atoms: _376  and  _378
REMARK  157  A    between atoms: _378  and  _379
REMARK  158  A    between atoms: _378  and  _381
REMARK  159  A    between atoms: _384  and  _386
REMARK  160  A    between atoms: _386  and  _387
REMARK  161  A    between atoms: _386  and  _389
REMARK  162  A    between atoms: _389  and  _390
REMARK  163  A    between atoms: _390  and  _391
REMARK  164  A    between atoms: _391  and  _392
REMARK  165  A    between atoms: _392  and  _393
REMARK  166  A    between atoms: _397  and  _399
REMARK  167  A    between atoms: _399  and  _400
REMARK  168  A    between atoms: _399  and  _402
REMARK  169  A    between atoms: _402  and  _403
REMARK  170  A    between atoms: _403  and  _404
REMARK  171  A    between atoms: _406  and  _408
REMARK  172  A    between atoms: _408  and  _409
REMARK  173  A    between atoms: _408  and  _411
REMARK  174  A    between atoms: _411  and  _412
REMARK  175  A    between atoms: _415  and  _417
REMARK  176  A    between atoms: _417  and  _418
REMARK  177  A    between atoms: _420  and  _422
REMARK  178  A    between atoms: _422  and  _423
REMARK  179  A    between atoms: _425  and  _427
REMARK  180  A    between atoms: _427  and  _428
REMARK  181  A    between atoms: _427  and  _430
REMARK  182  A    between atoms: _430  and  _431
REMARK  183  A    between atoms: _434  and  _436
REMARK  184  A    between atoms: _436  and  _437
REMARK  185  A    between atoms: _439  and  _441
REMARK  186  A    between atoms: _441  and  _442
REMARK  187  A    between atoms: _444  and  _446
REMARK  188  A    between atoms: _446  and  _447
REMARK  189  A    between atoms: _446  and  _449
REMARK  190  A    between atoms: _449  and  _450
REMARK  191  A    between atoms: _456  and  _458
REMARK  192  A    between atoms: _458  and  _459
REMARK  193  A    between atoms: _458  and  _461
REMARK  194  A    between atoms: _461  and  _462
REMARK  195  A    between atoms: _465  and  _467
REMARK  196  A    between atoms: _467  and  _468
REMARK  197  A    between atoms: _467  and  _470
REMARK  198  A    between atoms: _473  and  _475
REMARK  199  A    between atoms: _475  and  _476
REMARK  200  A    between atoms: _475  and  _478
REMARK  201  A    between atoms: _478  and  _479
REMARK  202  A    between atoms: _482  and  _484
REMARK  203  A    between atoms: _484  and  _485
REMARK  204  A    between atoms: _484  and  _487
REMARK  205  A    between atoms: _485  and  _486
REMARK  206  A    between atoms: _485  and  _491
REMARK  207  A    between atoms: _487  and  _488
REMARK  208  A    between atoms: _492  and  _493
REMARK  209  A    between atoms: _498  and  _500
REMARK  210  A    between atoms: _500  and  _501
REMARK  211  A    between atoms: _500  and  _503
REMARK  212  A    between atoms: _503  and  _504
REMARK  213  A    between atoms: _507  and  _509
REMARK  214  A    between atoms: _509  and  _510
REMARK  215  A    between atoms: _509  and  _512
REMARK  216  A    between atoms: _512  and  _513
REMARK  217  A    between atoms: _518  and  _520
REMARK  218  A    between atoms: _520  and  _521
REMARK  219  A    between atoms: _520  and  _523
REMARK  220  A    between atoms: _526  and  _528
REMARK  221  A    between atoms: _528  and  _529
REMARK  222  A    between atoms: _528  and  _531
REMARK  223  A    between atoms: _531  and  _532
REMARK  224  A    between atoms: _535  and  _537
REMARK  225  A    between atoms: _537  and  _538
REMARK  226  A    between atoms: _540  and  _542
REMARK  227  A    between atoms: _542  and  _543
REMARK  228  A    between atoms: _542  and  _545
REMARK  229  A    between atoms: _545  and  _546
REMARK  230  A    between atoms: _546  and  _547
REMARK  231  A    between atoms: _547  and  _548
REMARK                            x       y       z     vdW  Elec       q    Type
REMARK                         _______ _______ _______ _____ _____    ______ ____
ROOT
ATOM      1  O   HOH     1      13.749  15.625  11.021  0.00  0.00    +0.000 OA
ENDROOT
TORSDOF 0
REMARK  Name = ../refined-set-2016/4cps/4cps_pocket.pdb
REMARK  231 active torsions:
REMARK  status: ('A' for Active; 'I' for Inactive)
REMARK    1  A    between atoms: _1  and  _3
REMARK    2  A    between atoms: _3  and  _4
REMARK    3  A    between atoms: _3  and  _6
REMARK    4  A    between atoms: _6  and  _7
REMARK    5  A    between atoms: _7  and  _8
REMARK    6  A    between atoms: _8  and  _9
REMARK    7  A    between atoms: _18  and  _20
REMARK    8  A    between atoms: _20  and  _21
REMARK    9  A    between atoms: _20  and  _23
REMARK   10  A    between atoms: _23  and  _24
REMARK   11  A    between atoms: _27  and  _29
REMARK   12  A    between atoms: _29  and  _30
REMARK   13  A    between atoms: _29  and  _32
REMARK   14  A    between atoms: _32  and  _33
REMARK   15  A    between atoms: _36  and  _38
REMARK   16  A    between atoms: _38  and  _39
REMARK   17  A    between atoms: _38  and  _41
REMARK   18  A    between atoms: _41  and  _42
REMARK   19  A    between atoms: _45  and  _47
REMARK   20  A    between atoms: _47  and  _48
REMARK   21  A    between atoms: _47  and  _50
REMARK   22  A    between atoms: _50  and  _51
REMARK   23  A    between atoms: _54  and  _56
REMARK   24  A    between atoms: _56  and  _57
REMARK   25  A    between atoms: _59  and  _61
REMARK   26  A    between atoms: _61  and  _62
REMARK   27  A    between atoms: _65  and  _67
REMARK   28  A    between atoms: _67  and  _68
REMARK   29  A    between atoms: _67  and  _70
REMARK   30  A    between atoms: _70  and  _71
REMARK   31  A    between atoms: _74  and  _76
REMARK   32  A    between atoms: _76  and  _77
REMARK   33  A    between atoms: _76  and  _79
REMARK   34  A    between atoms: _79  and  _80
REMARK   35  A    between atoms: _83  and  _85
REMARK   36  A    between atoms: _85  and  _86
REMARK   37  A    between atoms: _85  and  _88
REMARK   38  A    between atoms: _88  and  _89
REMARK   39  A    between atoms: _92  and  _94
REMARK   40  A    between atoms: _94  and  _95
REMARK   41  A    between atoms: _94  and  _97
REMARK   42  A    between atoms: _100  and  _102
REMARK   43  A    between atoms: _102  and  _103
REMARK   44  A    between atoms: _102  and  _105
REMARK   45  A    between atoms: _105  and  _106
REMARK   46  A    between atoms: _106  and  _107
REMARK   47  A    between atoms: _107  and  _108
REMARK   48  A    between atoms: _108  and  _109
REMARK   49  A    between atoms: _113  and  _115
REMARK   50  A    between atoms: _115  and  _116
REMARK   51  A    between atoms: _115  and  _118
REMARK   52  A    between atoms: _118  and  _119
REMARK   53  A    between atoms: _119  and  _120
REMARK   54  A    between atoms: _122  and  _124
REMARK   55  A    between atoms: _124  and  _125
REMARK   56  A    between atoms: _124  and  _127
REMARK   57  A    between atoms: _127  and  _128
REMARK   58  A    between atoms: _131  and  _133
REMARK   59  A    between atoms: _133  and  _134
REMARK   60  A    between atoms: _136  and  _138
REMARK   61  A    between atoms: _138  and  _139
REMARK   62  A    between atoms: _141  and  _143
REMARK   63  A    between atoms: _143  and  _144
REMARK   64  A    between atoms: _143  and  _146
REMARK   65  A    between atoms: _146  and  _147
REMARK   66  A    between atoms: _150  and  _152
REMARK   67  A    between atoms: _152  and  _153
REMARK   68  A    between atoms: _155  and  _157
REMARK   69  A    between atoms: _157  and  _158
REMARK   70  A    between atoms: _160  and  _162
REMARK   71  A    between atoms: _162  and  _163
REMARK   72  A    between atoms: _162  and  _165
REMARK   73  A    between atoms: _165  and  _166
REMARK   74  A    between atoms: _172  and  _174
REMARK   75  A    between atoms: _174  and  _175
REMARK   76  A    between atoms: _174  and  _177
REMARK   77  A    between atoms: _177  and  _178
REMARK   78  A    between atoms: _181  and  _183
REMARK   79  A    between atoms: _183  and  _184
REMARK   80  A    between atoms: _183  and  _186
REMARK   81  A    between atoms: _186  and  _187
REMARK   82  A    between atoms: _190  and  _192
REMARK   83  A    between atoms: _192  and  _193
REMARK   84  A    between atoms: _192  and  _195
REMARK   85  A    between atoms: _195  and  _196
REMARK   86  A    between atoms: _200  and  _201
REMARK   87  A    between atoms: _206  and  _208
REMARK   88  A    between atoms: _208  and  _209
REMARK   89  A    between atoms: _208  and  _211
REMARK   90  A    between atoms: _211  and  _212
REMARK   91  A    between atoms: _215  and  _217
REMARK   92  A    between atoms: _217  and  _218
REMARK   93  A    between atoms: _217  and  _220
REMARK   94  A    between atoms: _220  and  _221
REMARK   95  A    between atoms: _226  and  _228
REMARK   96  A    between atoms: _228  and  _229
REMARK   97  A    between atoms: _228  and  _231
REMARK   98  A    between atoms: _234  and  _236
REMARK   99  A    between atoms: _236  and  _237
REMARK  100  A    between atoms: _236  and  _239
REMARK  101  A    between atoms: _239  and  _240
REMARK  102  A    between atoms: _243  and  _245
REMARK  103  A    between atoms: _245  and  _246
REMARK  104  A    between atoms: _248  and  _250
REMARK  105  A    between atoms: _250  and  _251
REMARK  106  A    between atoms: _250  and  _253
REMARK  107  A    between atoms: _253  and  _254
REMARK  108  A    between atoms: _254  and  _255
REMARK  109  A    between atoms: _255  and  _256
REMARK  110  A    between atoms: _265  and  _267
REMARK  111  A    between atoms: _267  and  _268
REMARK  112  A    between atoms: _267  and  _270
REMARK  113  A    between atoms: _270  and  _271
REMARK  114  A    between atoms: _276  and  _278
REMARK  115  A    between atoms: _278  and  _279
REMARK  116  A    between atoms: _278  and  _281
REMARK  117  A    between atoms: _281  and  _282
REMARK  118  A    between atoms: _282  and  _283
REMARK  119  A    between atoms: _283  and  _284
REMARK  120  A    between atoms: _293  and  _295
REMARK  121  A    between atoms: _295  and  _296
REMARK  122  A    between atoms: _295  and  _298
REMARK  123  A    between atoms: _298  and  _299
REMARK  124  A    between atoms: _302  and  _304
REMARK  125  A    between atoms: _304  and  _305
REMARK  126  A    between atoms: _304  and  _307
REMARK  127  A    between atoms: _307  and  _308
REMARK  128  A    between atoms: _311  and  _313
REMARK  129  A    between atoms: _313  and  _314
REMARK  130  A    between atoms: _313  and  _316
REMARK  131  A    between atoms: _316  and  _317
REMARK  132  A    between atoms: _320  and  _322
REMARK  133  A    between atoms: _322  and  _323
REMARK  134  A    between atoms: _322  and  _325
REMARK  135  A    between atoms: _325  and  _326
REMARK  136  A    between atoms: _329  and  _331
REMARK  137  A    between atoms: _331  and  _332
REMARK  138  A    between atoms: _331  and  _334
REMARK  139  A    between atoms: _334  and  _335
REMARK  140  A    between atoms: _338  and  _340
REMARK  141  A    between atoms: _340  and  _341
REMARK  142  A    between atoms: _343  and  _345
REMARK  143  A    between atoms: _345  and  _346
REMARK  144  A    between atoms: _349  and  _351
REMARK  145  A    between atoms: _351  and  _352
REMARK  146  A    between atoms: _351  and  _354
REMARK  147  A    between atoms: _354  and  _355
REMARK  148  A    between atoms: _358  and  _360
REMARK  149  A    between atoms: _360  and  _361
REMARK  150  A    between atoms: _360  and  _363
REMARK  151  A    between atoms: _363  and  _364
REMARK  152  A    between atoms: _367  and  _369
REMARK  153  A    between atoms: _369  and  _370
REMARK  154  A    between atoms: _369  and  _372
REMARK  155  A    between atoms: _372  and  _373
REMARK  156  A    between atoms: _376  and  _378
REMARK  157  A    between atoms: _378  and  _379
REMARK  158  A    between atoms: _378  and  _381
REMARK  159  A    between atoms: _384  and  _386
REMARK  160  A    between atoms: _386  and  _387
REMARK  161  A    between atoms: _386  and  _389
REMARK  162  A    between atoms: _389  and  _390
REMARK  163  A    between atoms: _390  and  _391
REMARK  164  A    between atoms: _391  and  _392
REMARK  165  A    between atoms: _392  and  _393
REMARK  166  A    between atoms: _397  and  _399
REMARK  167  A    between atoms: _399  and  _400
REMARK  168  A    between atoms: _399  and  _402
REMARK  169  A    between atoms: _402  and  _403
REMARK  170  A    between atoms: _403  and  _404
REMARK  171  A    between atoms: _406  and  _408
REMARK  172  A    between atoms: _408  and  _409
REMARK  173  A    between atoms: _408  and  _411
REMARK  174  A    between atoms: _411  and  _412
REMARK  175  A    between atoms: _415  and  _417
REMARK  176  A    between atoms: _417  and  _418
REMARK  177  A    between atoms: _420  and  _422
REMARK  178  A    between atoms: _422  and  _423
REMARK  179  A    between atoms: _425  and  _427
REMARK  180  A    between atoms: _427  and  _428
REMARK  181  A    between atoms: _427  and  _430
REMARK  182  A    between atoms: _430  and  _431
REMARK  183  A    between atoms: _434  and  _436
REMARK  184  A    between atoms: _436  and  _437
REMARK  185  A    between atoms: _439  and  _441
REMARK  186  A    between atoms: _441  and  _442
REMARK  187  A    between atoms: _444  and  _446
REMARK  188  A    between atoms: _446  and  _447
REMARK  189  A    between atoms: _446  and  _449
REMARK  190  A    between atoms: _449  and  _450
REMARK  191  A    between atoms: _456  and  _458
REMARK  192  A    between atoms: _458  and  _459
REMARK  193  A    between atoms: _458  and  _461
REMARK  194  A    between atoms: _461  and  _462
REMARK  195  A    between atoms: _465  and  _467
REMARK  196  A    between atoms: _467  and  _468
REMARK  197  A    between atoms: _467  and  _470
REMARK  198  A    between atoms: _473  and  _475
REMARK  199  A    between atoms: _475  and  _476
REMARK  200  A    between atoms: _475  and  _478
REMARK  201  A    between atoms: _478  and  _479
REMARK  202  A    between atoms: _482  and  _484
REMARK  203  A    between atoms: _484  and  _485
REMARK  204  A    between atoms: _484  and  _487
REMARK  205  A    between atoms: _485  and  _486
REMARK  206  A    between atoms: _485  and  _491
REMARK  207  A    between atoms: _487  and  _488
REMARK  208  A    between atoms: _492  and  _493
REMARK  209  A    between atoms: _498  and  _500
REMARK  210  A    between atoms: _500  and  _501
REMARK  211  A    between atoms: _500  and  _503
REMARK  212  A    between atoms: _503  and  _504
REMARK  213  A    between atoms: _507  and  _509
REMARK  214  A    between atoms: _509  and  _510
REMARK  215  A    between atoms: _509  and  _512
REMARK  216  A    between atoms: _512  and  _513
REMARK  217  A    between atoms: _518  and  _520
REMARK  218  A    between atoms: _520  and  _521
REMARK  219  A    between atoms: _520  and  _523
REMARK  220  A    between atoms: _526  and  _528
REMARK  221  A    between atoms: _528  and  _529
REMARK  222  A    between atoms: _528  and  _531
REMARK  223  A    between atoms: _531  and  _532
REMARK  224  A    between atoms: _535  and  _537
REMARK  225  A    between atoms: _537  and  _538
REMARK  226  A    between atoms: _540  and  _542
REMARK  227  A    between atoms: _542  and  _543
REMARK  228  A    between atoms: _542  and  _545
REMARK  229  A    between atoms: _545  and  _546
REMARK  230  A    between atoms: _546  and  _547
REMARK  231  A    between atoms: _547  and  _548
REMARK                            x       y       z     vdW  Elec       q    Type
REMARK                         _______ _______ _______ _____ _____    ______ ____
ROOT
ATOM      1  O   HOH     1       9.718  16.676  13.947  0.00  0.00    +0.000 OA
ENDROOT
TORSDOF 0
REMARK  Name = ../refined-set-2016/4cps/4cps_pocket.pdb
REMARK  231 active torsions:
REMARK  status: ('A' for Active; 'I' for Inactive)
REMARK    1  A    between atoms: _1  and  _3
REMARK    2  A    between atoms: _3  and  _4
REMARK    3  A    between atoms: _3  and  _6
REMARK    4  A    between atoms: _6  and  _7
REMARK    5  A    between atoms: _7  and  _8
REMARK    6  A    between atoms: _8  and  _9
REMARK    7  A    between atoms: _18  and  _20
REMARK    8  A    between atoms: _20  and  _21
REMARK    9  A    between atoms: _20  and  _23
REMARK   10  A    between atoms: _23  and  _24
REMARK   11  A    between atoms: _27  and  _29
REMARK   12  A    between atoms: _29  and  _30
REMARK   13  A    between atoms: _29  and  _32
REMARK   14  A    between atoms: _32  and  _33
REMARK   15  A    between atoms: _36  and  _38
REMARK   16  A    between atoms: _38  and  _39
REMARK   17  A    between atoms: _38  and  _41
REMARK   18  A    between atoms: _41  and  _42
REMARK   19  A    between atoms: _45  and  _47
REMARK   20  A    between atoms: _47  and  _48
REMARK   21  A    between atoms: _47  and  _50
REMARK   22  A    between atoms: _50  and  _51
REMARK   23  A    between atoms: _54  and  _56
REMARK   24  A    between atoms: _56  and  _57
REMARK   25  A    between atoms: _59  and  _61
REMARK   26  A    between atoms: _61  and  _62
REMARK   27  A    between atoms: _65  and  _67
REMARK   28  A    between atoms: _67  and  _68
REMARK   29  A    between atoms: _67  and  _70
REMARK   30  A    between atoms: _70  and  _71
REMARK   31  A    between atoms: _74  and  _76
REMARK   32  A    between atoms: _76  and  _77
REMARK   33  A    between atoms: _76  and  _79
REMARK   34  A    between atoms: _79  and  _80
REMARK   35  A    between atoms: _83  and  _85
REMARK   36  A    between atoms: _85  and  _86
REMARK   37  A    between atoms: _85  and  _88
REMARK   38  A    between atoms: _88  and  _89
REMARK   39  A    between atoms: _92  and  _94
REMARK   40  A    between atoms: _94  and  _95
REMARK   41  A    between atoms: _94  and  _97
REMARK   42  A    between atoms: _100  and  _102
REMARK   43  A    between atoms: _102  and  _103
REMARK   44  A    between atoms: _102  and  _105
REMARK   45  A    between atoms: _105  and  _106
REMARK   46  A    between atoms: _106  and  _107
REMARK   47  A    between atoms: _107  and  _108
REMARK   48  A    between atoms: _108  and  _109
REMARK   49  A    between atoms: _113  and  _115
REMARK   50  A    between atoms: _115  and  _116
REMARK   51  A    between atoms: _115  and  _118
REMARK   52  A    between atoms: _118  and  _119
REMARK   53  A    between atoms: _119  and  _120
REMARK   54  A    between atoms: _122  and  _124
REMARK   55  A    between atoms: _124  and  _125
REMARK   56  A    between atoms: _124  and  _127
REMARK   57  A    between atoms: _127  and  _128
REMARK   58  A    between atoms: _131  and  _133
REMARK   59  A    between atoms: _133  and  _134
REMARK   60  A    between atoms: _136  and  _138
REMARK   61  A    between atoms: _138  and  _139
REMARK   62  A    between atoms: _141  and  _143
REMARK   63  A    between atoms: _143  and  _144
REMARK   64  A    between atoms: _143  and  _146
REMARK   65  A    between atoms: _146  and  _147
REMARK   66  A    between atoms: _150  and  _152
REMARK   67  A    between atoms: _152  and  _153
REMARK   68  A    between atoms: _155  and  _157
REMARK   69  A    between atoms: _157  and  _158
REMARK   70  A    between atoms: _160  and  _162
REMARK   71  A    between atoms: _162  and  _163
REMARK   72  A    between atoms: _162  and  _165
REMARK   73  A    between atoms: _165  and  _166
REMARK   74  A    between atoms: _172  and  _174
REMARK   75  A    between atoms: _174  and  _175
REMARK   76  A    between atoms: _174  and  _177
REMARK   77  A    between atoms: _177  and  _178
REMARK   78  A    between atoms: _181  and  _183
REMARK   79  A    between atoms: _183  and  _184
REMARK   80  A    between atoms: _183  and  _186
REMARK   81  A    between atoms: _186  and  _187
REMARK   82  A    between atoms: _190  and  _192
REMARK   83  A    between atoms: _192  and  _193
REMARK   84  A    between atoms: _192  and  _195
REMARK   85  A    between atoms: _195  and  _196
REMARK   86  A    between atoms: _200  and  _201
REMARK   87  A    between atoms: _206  and  _208
REMARK   88  A    between atoms: _208  and  _209
REMARK   89  A    between atoms: _208  and  _211
REMARK   90  A    between atoms: _211  and  _212
REMARK   91  A    between atoms: _215  and  _217
REMARK   92  A    between atoms: _217  and  _218
REMARK   93  A    between atoms: _217  and  _220
REMARK   94  A    between atoms: _220  and  _221
REMARK   95  A    between atoms: _226  and  _228
REMARK   96  A    between atoms: _228  and  _229
REMARK   97  A    between atoms: _228  and  _231
REMARK   98  A    between atoms: _234  and  _236
REMARK   99  A    between atoms: _236  and  _237
REMARK  100  A    between atoms: _236  and  _239
REMARK  101  A    between atoms: _239  and  _240
REMARK  102  A    between atoms: _243  and  _245
REMARK  103  A    between atoms: _245  and  _246
REMARK  104  A    between atoms: _248  and  _250
REMARK  105  A    between atoms: _250  and  _251
REMARK  106  A    between atoms: _250  and  _253
REMARK  107  A    between atoms: _253  and  _254
REMARK  108  A    between atoms: _254  and  _255
REMARK  109  A    between atoms: _255  and  _256
REMARK  110  A    between atoms: _265  and  _267
REMARK  111  A    between atoms: _267  and  _268
REMARK  112  A    between atoms: _267  and  _270
REMARK  113  A    between atoms: _270  and  _271
REMARK  114  A    between atoms: _276  and  _278
REMARK  115  A    between atoms: _278  and  _279
REMARK  116  A    between atoms: _278  and  _281
REMARK  117  A    between atoms: _281  and  _282
REMARK  118  A    between atoms: _282  and  _283
REMARK  119  A    between atoms: _283  and  _284
REMARK  120  A    between atoms: _293  and  _295
REMARK  121  A    between atoms: _295  and  _296
REMARK  122  A    between atoms: _295  and  _298
REMARK  123  A    between atoms: _298  and  _299
REMARK  124  A    between atoms: _302  and  _304
REMARK  125  A    between atoms: _304  and  _305
REMARK  126  A    between atoms: _304  and  _307
REMARK  127  A    between atoms: _307  and  _308
REMARK  128  A    between atoms: _311  and  _313
REMARK  129  A    between atoms: _313  and  _314
REMARK  130  A    between atoms: _313  and  _316
REMARK  131  A    between atoms: _316  and  _317
REMARK  132  A    between atoms: _320  and  _322
REMARK  133  A    between atoms: _322  and  _323
REMARK  134  A    between atoms: _322  and  _325
REMARK  135  A    between atoms: _325  and  _326
REMARK  136  A    between atoms: _329  and  _331
REMARK  137  A    between atoms: _331  and  _332
REMARK  138  A    between atoms: _331  and  _334
REMARK  139  A    between atoms: _334  and  _335
REMARK  140  A    between atoms: _338  and  _340
REMARK  141  A    between atoms: _340  and  _341
REMARK  142  A    between atoms: _343  and  _345
REMARK  143  A    between atoms: _345  and  _346
REMARK  144  A    between atoms: _349  and  _351
REMARK  145  A    between atoms: _351  and  _352
REMARK  146  A    between atoms: _351  and  _354
REMARK  147  A    between atoms: _354  and  _355
REMARK  148  A    between atoms: _358  and  _360
REMARK  149  A    between atoms: _360  and  _361
REMARK  150  A    between atoms: _360  and  _363
REMARK  151  A    between atoms: _363  and  _364
REMARK  152  A    between atoms: _367  and  _369
REMARK  153  A    between atoms: _369  and  _370
REMARK  154  A    between atoms: _369  and  _372
REMARK  155  A    between atoms: _372  and  _373
REMARK  156  A    between atoms: _376  and  _378
REMARK  157  A    between atoms: _378  and  _379
REMARK  158  A    between atoms: _378  and  _381
REMARK  159  A    between atoms: _384  and  _386
REMARK  160  A    between atoms: _386  and  _387
REMARK  161  A    between atoms: _386  and  _389
REMARK  162  A    between atoms: _389  and  _390
REMARK  163  A    between atoms: _390  and  _391
REMARK  164  A    between atoms: _391  and  _392
REMARK  165  A    between atoms: _392  and  _393
REMARK  166  A    between atoms: _397  and  _399
REMARK  167  A    between atoms: _399  and  _400
REMARK  168  A    between atoms: _399  and  _402
REMARK  169  A    between atoms: _402  and  _403
REMARK  170  A    between atoms: _403  and  _404
REMARK  171  A    between atoms: _406  and  _408
REMARK  172  A    between atoms: _408  and  _409
REMARK  173  A    between atoms: _408  and  _411
REMARK  174  A    between atoms: _411  and  _412
REMARK  175  A    between atoms: _415  and  _417
REMARK  176  A    between atoms: _417  and  _418
REMARK  177  A    between atoms: _420  and  _422
REMARK  178  A    between atoms: _422  and  _423
REMARK  179  A    between atoms: _425  and  _427
REMARK  180  A    between atoms: _427  and  _428
REMARK  181  A    between atoms: _427  and  _430
REMARK  182  A    between atoms: _430  and  _431
REMARK  183  A    between atoms: _434  and  _436
REMARK  184  A    between atoms: _436  and  _437
REMARK  185  A    between atoms: _439  and  _441
REMARK  186  A    between atoms: _441  and  _442
REMARK  187  A    between atoms: _444  and  _446
REMARK  188  A    between atoms: _446  and  _447
REMARK  189  A    between atoms: _446  and  _449
REMARK  190  A    between atoms: _449  and  _450
REMARK  191  A    between atoms: _456  and  _458
REMARK  192  A    between atoms: _458  and  _459
REMARK  193  A    between atoms: _458  and  _461
REMARK  194  A    between atoms: _461  and  _462
REMARK  195  A    between atoms: _465  and  _467
REMARK  196  A    between atoms: _467  and  _468
REMARK  197  A    between atoms: _467  and  _470
REMARK  198  A    between atoms: _473  and  _475
REMARK  199  A    between atoms: _475  and  _476
REMARK  200  A    between atoms: _475  and  _478
REMARK  201  A    between atoms: _478  and  _479
REMARK  202  A    between atoms: _482  and  _484
REMARK  203  A    between atoms: _484  and  _485
REMARK  204  A    between atoms: _484  and  _487
REMARK  205  A    between atoms: _485  and  _486
REMARK  206  A    between atoms: _485  and  _491
REMARK  207  A    between atoms: _487  and  _488
REMARK  208  A    between atoms: _492  and  _493
REMARK  209  A    between atoms: _498  and  _500
REMARK  210  A    between atoms: _500  and  _501
REMARK  211  A    between atoms: _500  and  _503
REMARK  212  A    between atoms: _503  and  _504
REMARK  213  A    between atoms: _507  and  _509
REMARK  214  A    between atoms: _509  and  _510
REMARK  215  A    between atoms: _509  and  _512
REMARK  216  A    between atoms: _512  and  _513
REMARK  217  A    between atoms: _518  and  _520
REMARK  218  A    between atoms: _520  and  _521
REMARK  219  A    between atoms: _520  and  _523
REMARK  220  A    between atoms: _526  and  _528
REMARK  221  A    between atoms: _528  and  _529
REMARK  222  A    between atoms: _528  and  _531
REMARK  223  A    between atoms: _531  and  _532
REMARK  224  A    between atoms: _535  and  _537
REMARK  225  A    between atoms: _537  and  _538
REMARK  226  A    between atoms: _540  and  _542
REMARK  227  A    between atoms: _542  and  _543
REMARK  228  A    between atoms: _542  and  _545
REMARK  229  A    between atoms: _545  and  _546
REMARK  230  A    between atoms: _546  and  _547
REMARK  231  A    between atoms: _547  and  _548
REMARK                            x       y       z     vdW  Elec       q    Type
REMARK                         _______ _______ _______ _____ _____    ______ ____
ROOT
ATOM      1  O   HOH     1       2.382  21.864  -0.944  0.00  0.00    +0.000 OA
ENDROOT
TORSDOF 0
