REMARK  Name = ../refined-set-2016/4qij/4qij_pocket.pdb
REMARK  291 active torsions:
REMARK  status: ('A' for Active; 'I' for Inactive)
REMARK    1  A    between atoms: _1  and  _3
REMARK    2  A    between atoms: _3  and  _4
REMARK    3  A    between atoms: _3  and  _6
REMARK    4  A    between atoms: _6  and  _7
REMARK    5  A    between atoms: _7  and  _8
REMARK    6  A    between atoms: _8  and  _9
REMARK    7  A    between atoms: _19  and  _20
REMARK    8  A    between atoms: _25  and  _27
REMARK    9  A    between atoms: _27  and  _28
REMARK   10  A    between atoms: _27  and  _30
REMARK   11  A    between atoms: _30  and  _31
REMARK   12  A    between atoms: _31  and  _32
REMARK   13  A    between atoms: _35  and  _37
REMARK   14  A    between atoms: _37  and  _38
REMARK   15  A    between atoms: _37  and  _40
REMARK   16  A    between atoms: _43  and  _45
REMARK   17  A    between atoms: _45  and  _46
REMARK   18  A    between atoms: _45  and  _48
REMARK   19  A    between atoms: _48  and  _49
REMARK   20  A    between atoms: _49  and  _50
REMARK   21  A    between atoms: _50  and  _51
REMARK   22  A    between atoms: _60  and  _62
REMARK   23  A    between atoms: _62  and  _63
REMARK   24  A    between atoms: _62  and  _65
REMARK   25  A    between atoms: _65  and  _66
REMARK   26  A    between atoms: _71  and  _73
REMARK   27  A    between atoms: _73  and  _74
REMARK   28  A    between atoms: _77  and  _79
REMARK   29  A    between atoms: _79  and  _80
REMARK   30  A    between atoms: _79  and  _82
REMARK   31  A    between atoms: _82  and  _83
REMARK   32  A    between atoms: _89  and  _91
REMARK   33  A    between atoms: _91  and  _92
REMARK   34  A    between atoms: _91  and  _94
REMARK   35  A    between atoms: _97  and  _99
REMARK   36  A    between atoms: _99  and  _100
REMARK   37  A    between atoms: _99  and  _102
REMARK   38  A    between atoms: _102  and  _103
REMARK   39  A    between atoms: _105  and  _107
REMARK   40  A    between atoms: _107  and  _108
REMARK   41  A    between atoms: _107  and  _110
REMARK   42  A    between atoms: _110  and  _111
REMARK   43  A    between atoms: _111  and  _112
REMARK   44  A    between atoms: _112  and  _113
REMARK   45  A    between atoms: _113  and  _114
REMARK   46  A    between atoms: _118  and  _120
REMARK   47  A    between atoms: _120  and  _121
REMARK   48  A    between atoms: _120  and  _123
REMARK   49  A    between atoms: _123  and  _124
REMARK   50  A    between atoms: _127  and  _129
REMARK   51  A    between atoms: _129  and  _130
REMARK   52  A    between atoms: _132  and  _134
REMARK   53  A    between atoms: _134  and  _135
REMARK   54  A    between atoms: _134  and  _137
REMARK   55  A    between atoms: _137  and  _138
REMARK   56  A    between atoms: _148  and  _150
REMARK   57  A    between atoms: _150  and  _151
REMARK   58  A    between atoms: _154  and  _156
REMARK   59  A    between atoms: _156  and  _157
REMARK   60  A    between atoms: _156  and  _159
REMARK   61  A    between atoms: _159  and  _160
REMARK   62  A    between atoms: _166  and  _168
REMARK   63  A    between atoms: _168  and  _169
REMARK   64  A    between atoms: _168  and  _171
REMARK   65  A    between atoms: _173  and  _175
REMARK   66  A    between atoms: _175  and  _176
REMARK   67  A    between atoms: _175  and  _178
REMARK   68  A    between atoms: _178  and  _179
REMARK   69  A    between atoms: _181  and  _183
REMARK   70  A    between atoms: _183  and  _184
REMARK   71  A    between atoms: _186  and  _188
REMARK   72  A    between atoms: _188  and  _189
REMARK   73  A    between atoms: _191  and  _193
REMARK   74  A    between atoms: _193  and  _194
REMARK   75  A    between atoms: _193  and  _196
REMARK   76  A    between atoms: _196  and  _197
REMARK   77  A    between atoms: _200  and  _202
REMARK   78  A    between atoms: _202  and  _203
REMARK   79  A    between atoms: _202  and  _205
REMARK   80  A    between atoms: _205  and  _206
REMARK   81  A    between atoms: _206  and  _207
REMARK   82  A    between atoms: _212  and  _214
REMARK   83  A    between atoms: _214  and  _215
REMARK   84  A    between atoms: _214  and  _217
REMARK   85  A    between atoms: _217  and  _218
REMARK   86  A    between atoms: _218  and  _219
REMARK   87  A    between atoms: _219  and  _220
REMARK   88  A    between atoms: _229  and  _231
REMARK   89  A    between atoms: _231  and  _232
REMARK   90  A    between atoms: _231  and  _234
REMARK   91  A    between atoms: _234  and  _235
REMARK   92  A    between atoms: _238  and  _240
REMARK   93  A    between atoms: _240  and  _241
REMARK   94  A    between atoms: _240  and  _243
REMARK   95  A    between atoms: _243  and  _244
REMARK   96  A    between atoms: _244  and  _245
REMARK   97  A    between atoms: _245  and  _246
REMARK   98  A    between atoms: _255  and  _257
REMARK   99  A    between atoms: _257  and  _258
REMARK  100  A    between atoms: _260  and  _262
REMARK  101  A    between atoms: _262  and  _263
REMARK  102  A    between atoms: _262  and  _265
REMARK  103  A    between atoms: _265  and  _266
REMARK  104  A    between atoms: _271  and  _272
REMARK  105  A    between atoms: _274  and  _276
REMARK  106  A    between atoms: _276  and  _277
REMARK  107  A    between atoms: _276  and  _279
REMARK  108  A    between atoms: _279  and  _280
REMARK  109  A    between atoms: _283  and  _285
REMARK  110  A    between atoms: _285  and  _286
REMARK  111  A    between atoms: _285  and  _288
REMARK  112  A    between atoms: _288  and  _289
REMARK  113  A    between atoms: _289  and  _290
REMARK  114  A    between atoms: _290  and  _291
REMARK  115  A    between atoms: _300  and  _302
REMARK  116  A    between atoms: _302  and  _303
REMARK  117  A    between atoms: _302  and  _305
REMARK  118  A    between atoms: _305  and  _306
REMARK  119  A    between atoms: _309  and  _311
REMARK  120  A    between atoms: _311  and  _312
REMARK  121  A    between atoms: _311  and  _314
REMARK  122  A    between atoms: _314  and  _315
REMARK  123  A    between atoms: _320  and  _322
REMARK  124  A    between atoms: _322  and  _323
REMARK  125  A    between atoms: _322  and  _325
REMARK  126  A    between atoms: _325  and  _326
REMARK  127  A    between atoms: _329  and  _331
REMARK  128  A    between atoms: _331  and  _332
REMARK  129  A    between atoms: _331  and  _334
REMARK  130  A    between atoms: _334  and  _335
REMARK  131  A    between atoms: _338  and  _340
REMARK  132  A    between atoms: _340  and  _341
REMARK  133  A    between atoms: _340  and  _343
REMARK  134  A    between atoms: _343  and  _344
REMARK  135  A    between atoms: _344  and  _345
REMARK  136  A    between atoms: _348  and  _350
REMARK  137  A    between atoms: _350  and  _351
REMARK  138  A    between atoms: _350  and  _353
REMARK  139  A    between atoms: _353  and  _354
REMARK  140  A    between atoms: _354  and  _355
REMARK  141  A    between atoms: _360  and  _362
REMARK  142  A    between atoms: _362  and  _363
REMARK  143  A    between atoms: _365  and  _367
REMARK  144  A    between atoms: _367  and  _368
REMARK  145  A    between atoms: _367  and  _370
REMARK  146  A    between atoms: _370  and  _371
REMARK  147  A    between atoms: _381  and  _383
REMARK  148  A    between atoms: _383  and  _384
REMARK  149  A    between atoms: _387  and  _389
REMARK  150  A    between atoms: _389  and  _390
REMARK  151  A    between atoms: _393  and  _395
REMARK  152  A    between atoms: _395  and  _396
REMARK  153  A    between atoms: _398  and  _400
REMARK  154  A    between atoms: _400  and  _401
REMARK  155  A    between atoms: _403  and  _405
REMARK  156  A    between atoms: _405  and  _406
REMARK  157  A    between atoms: _408  and  _410
REMARK  158  A    between atoms: _410  and  _411
REMARK  159  A    between atoms: _410  and  _413
REMARK  160  A    between atoms: _413  and  _414
REMARK  161  A    between atoms: _419  and  _421
REMARK  162  A    between atoms: _421  and  _422
REMARK  163  A    between atoms: _421  and  _424
REMARK  164  A    between atoms: _424  and  _425
REMARK  165  A    between atoms: _427  and  _429
REMARK  166  A    between atoms: _429  and  _430
REMARK  167  A    between atoms: _429  and  _432
REMARK  168  A    between atoms: _432  and  _433
REMARK  169  A    between atoms: _436  and  _438
REMARK  170  A    between atoms: _438  and  _439
REMARK  171  A    between atoms: _438  and  _441
REMARK  172  A    between atoms: _441  and  _442
REMARK  173  A    between atoms: _442  and  _443
REMARK  174  A    between atoms: _443  and  _444
REMARK  175  A    between atoms: _453  and  _455
REMARK  176  A    between atoms: _455  and  _456
REMARK  177  A    between atoms: _455  and  _458
REMARK  178  A    between atoms: _458  and  _459
REMARK  179  A    between atoms: _465  and  _467
REMARK  180  A    between atoms: _467  and  _468
REMARK  181  A    between atoms: _467  and  _470
REMARK  182  A    between atoms: _470  and  _471
REMARK  183  A    between atoms: _471  and  _472
REMARK  184  A    between atoms: _472  and  _473
REMARK  185  A    between atoms: _473  and  _474
REMARK  186  A    between atoms: _478  and  _480
REMARK  187  A    between atoms: _480  and  _481
REMARK  188  A    between atoms: _480  and  _483
REMARK  189  A    between atoms: _483  and  _484
REMARK  190  A    between atoms: _484  and  _485
REMARK  191  A    between atoms: _490  and  _492
REMARK  192  A    between atoms: _492  and  _493
REMARK  193  A    between atoms: _492  and  _495
REMARK  194  A    between atoms: _495  and  _496
REMARK  195  A    between atoms: _499  and  _501
REMARK  196  A    between atoms: _501  and  _502
REMARK  197  A    between atoms: _501  and  _504
REMARK  198  A    between atoms: _504  and  _505
REMARK  199  A    between atoms: _508  and  _510
REMARK  200  A    between atoms: _510  and  _511
REMARK  201  A    between atoms: _514  and  _516
REMARK  202  A    between atoms: _516  and  _517
REMARK  203  A    between atoms: _516  and  _519
REMARK  204  A    between atoms: _519  and  _520
REMARK  205  A    between atoms: _523  and  _525
REMARK  206  A    between atoms: _525  and  _526
REMARK  207  A    between atoms: _525  and  _528
REMARK  208  A    between atoms: _531  and  _533
REMARK  209  A    between atoms: _533  and  _534
REMARK  210  A    between atoms: _536  and  _538
REMARK  211  A    between atoms: _538  and  _539
REMARK  212  A    between atoms: _538  and  _541
REMARK  213  A    between atoms: _541  and  _542
REMARK  214  A    between atoms: _544  and  _546
REMARK  215  A    between atoms: _546  and  _547
REMARK  216  A    between atoms: _546  and  _549
REMARK  217  A    between atoms: _549  and  _550
REMARK  218  A    between atoms: _556  and  _558
REMARK  219  A    between atoms: _558  and  _559
REMARK  220  A    between atoms: _558  and  _561
REMARK  221  A    between atoms: _561  and  _562
REMARK  222  A    between atoms: _565  and  _567
REMARK  223  A    between atoms: _567  and  _568
REMARK  224  A    between atoms: _570  and  _572
REMARK  225  A    between atoms: _572  and  _573
REMARK  226  A    between atoms: _575  and  _577
REMARK  227  A    between atoms: _577  and  _578
REMARK  228  A    between atoms: _577  and  _580
REMARK  229  A    between atoms: _580  and  _581
REMARK  230  A    between atoms: _586  and  _587
REMARK  231  A    between atoms: _589  and  _591
REMARK  232  A    between atoms: _591  and  _592
REMARK  233  A    between atoms: _594  and  _596
REMARK  234  A    between atoms: _596  and  _597
REMARK  235  A    between atoms: _596  and  _599
REMARK  236  A    between atoms: _599  and  _600
REMARK  237  A    between atoms: _606  and  _608
REMARK  238  A    between atoms: _608  and  _609
REMARK  239  A    between atoms: _608  and  _611
REMARK  240  A    between atoms: _611  and  _612
REMARK  241  A    between atoms: _615  and  _617
REMARK  242  A    between atoms: _617  and  _618
REMARK  243  A    between atoms: _617  and  _620
REMARK  244  A    between atoms: _620  and  _621
REMARK  245  A    between atoms: _621  and  _622
REMARK  246  A    between atoms: _627  and  _629
REMARK  247  A    between atoms: _629  and  _630
REMARK  248  A    between atoms: _633  and  _635
REMARK  249  A    between atoms: _635  and  _636
REMARK  250  A    between atoms: _638  and  _640
REMARK  251  A    between atoms: _640  and  _641
REMARK  252  A    between atoms: _640  and  _643
REMARK  253  A    between atoms: _643  and  _644
REMARK  254  A    between atoms: _644  and  _645
REMARK  255  A    between atoms: _648  and  _650
REMARK  256  A    between atoms: _650  and  _651
REMARK  257  A    between atoms: _650  and  _653
REMARK  258  A    between atoms: _653  and  _654
REMARK  259  A    between atoms: _657  and  _659
REMARK  260  A    between atoms: _659  and  _660
REMARK  261  A    between atoms: _659  and  _662
REMARK  262  A    between atoms: _662  and  _663
REMARK  263  A    between atoms: _663  and  _664
REMARK  264  A    between atoms: _664  and  _665
REMARK  265  A    between atoms: _674  and  _676
REMARK  266  A    between atoms: _676  and  _677
REMARK  267  A    between atoms: _676  and  _679
REMARK  268  A    between atoms: _679  and  _680
REMARK  269  A    between atoms: _685  and  _686
REMARK  270  A    between atoms: _688  and  _690
REMARK  271  A    between atoms: _690  and  _691
REMARK  272  A    between atoms: _693  and  _695
REMARK  273  A    between atoms: _695  and  _696
REMARK  274  A    between atoms: _695  and  _698
REMARK  275  A    between atoms: _698  and  _699
REMARK  276  A    between atoms: _705  and  _707
REMARK  277  A    between atoms: _707  and  _708
REMARK  278  A    between atoms: _707  and  _710
REMARK  279  A    between atoms: _710  and  _711
REMARK  280  A    between atoms: _714  and  _716
REMARK  281  A    between atoms: _716  and  _717
REMARK  282  A    between atoms: _716  and  _719
REMARK  283  A    between atoms: _719  and  _720
REMARK  284  A    between atoms: _720  and  _721
REMARK  285  A    between atoms: _726  and  _728
REMARK  286  A    between atoms: _728  and  _729
REMARK  287  A    between atoms: _728  and  _731
REMARK  288  A    between atoms: _731  and  _732
REMARK  289  A    between atoms: _732  and  _733
REMARK  290  A    between atoms: _733  and  _734
REMARK  291  A    between atoms: _734  and  _735
REMARK                            x       y       z     vdW  Elec       q    Type
REMARK                         _______ _______ _______ _____ _____    ______ ____
ROOT
ATOM      1  C   VAL A   4      28.657 -11.054 198.146  0.00  0.00    +0.241 C 
ATOM      2  N   ARG A   5      29.411 -10.360 199.000  0.00  0.00    -0.297 N 
ATOM      3  H   ARG A   5      29.033 -10.160 199.948  0.00  0.00    +0.150 HD
ATOM      4  O   VAL A   4      29.001 -11.309 196.983  0.00  0.00    -0.273 OA
ENDROOT
BRANCH   1   5
ATOM      5  CA  VAL A   4      27.305 -11.513 198.692  0.00  0.00    +0.149 C 
BRANCH   5   8
ATOM      6  C   GLU A   3      26.394 -10.729 200.809  0.00  0.00    +0.241 C 
ATOM      7  O   GLU A   3      26.521 -11.837 201.312  0.00  0.00    -0.273 OA
ATOM      8  N   VAL A   4      26.699 -10.479 199.537  0.00  0.00    -0.297 N 
ATOM      9  H   VAL A   4      26.505  -9.538 199.138  0.00  0.00    +0.150 HD
BRANCH   6  10
ATOM     10  CA  GLU A   3      25.920  -9.554 201.662  0.00  0.00    +0.149 C 
BRANCH  10  13
ATOM     11  C   PRO A   2      27.670  -7.953 201.113  0.00  0.00    +0.241 C 
ATOM     12  O   PRO A   2      28.558  -8.693 201.538  0.00  0.00    -0.273 OA
ATOM     13  N   GLU A   3      26.380  -8.279 201.121  0.00  0.00    -0.297 N 
ATOM     14  H   GLU A   3      25.684  -7.610 200.733  0.00  0.00    +0.150 HD
BRANCH  11  17
ATOM     15  C   ARG A   1      26.626  -6.617 198.542  0.00  0.00    +0.241 C 
ATOM     16  N   PRO A   2      26.995  -6.005 199.682  0.00  0.00    -0.272 N 
ATOM     17  CA  PRO A   2      28.057  -6.602 200.499  0.00  0.00    +0.152 C 
ATOM     18  CB  PRO A   2      28.304  -5.544 201.581  0.00  0.00    +0.031 C 
ATOM     19  CG  PRO A   2      27.003  -4.788 201.678  0.00  0.00    +0.024 C 
ATOM     20  CD  PRO A   2      26.447  -4.773 200.287  0.00  0.00    +0.094 C 
ATOM     21  O   ARG A   1      27.001  -7.754 198.250  0.00  0.00    -0.273 OA
BRANCH  15  22
ATOM     22  CA  ARG A   1      25.677  -5.857 197.614  0.00  0.00    +0.145 C 
BRANCH  22  23
ATOM     23  N   ARG A   1      26.256  -4.577 197.206  0.00  0.00    -0.238 NA
ATOM     24  H   ARG A   1      27.217  -4.559 196.809  0.00  0.00    +0.142 HD
ENDBRANCH  22  23
BRANCH  22  25
ATOM     25  CB  ARG A   1      25.340  -6.718 196.382  0.00  0.00    +0.030 C 
BRANCH  25  26
ATOM     26  CG  ARG A   1      24.535  -5.984 195.320  0.00  0.00    +0.045 C 
BRANCH  26  27
ATOM     27  CD  ARG A   1      24.241  -6.882 194.124  0.00  0.00    +0.174 C 
BRANCH  27  28
ATOM     28  NE  ARG A   1      23.145  -7.800 194.412  0.00  0.00    -0.265 N 
ATOM     29  HE  ARG A   1      22.374  -7.454 195.018  0.00  0.00    +0.259 HD
ATOM     30  CZ  ARG A   1      23.057  -9.046 193.958  0.00  0.00    +0.342 C 
ATOM     31  NH2 ARG A   1      22.003  -9.798 194.282  0.00  0.00    -0.292 N 
ATOM     32 HH21 ARG A   1      21.253  -9.409 194.888  0.00  0.00    +0.255 HD
ATOM     33 HH22 ARG A   1      21.932 -10.773 193.928  0.00  0.00    +0.255 HD
ATOM     34  NH1 ARG A   1      24.022  -9.547 193.193  0.00  0.00    -0.292 N 
ATOM     35 HH11 ARG A   1      24.848  -8.964 192.949  0.00  0.00    +0.255 HD
ATOM     36 HH12 ARG A   1      23.951 -10.522 192.839  0.00  0.00    +0.255 HD
ENDBRANCH  27  28
ENDBRANCH  26  27
ENDBRANCH  25  26
ENDBRANCH  22  25
ENDBRANCH  15  22
ENDBRANCH  11  17
ENDBRANCH  10  13
BRANCH  10  37
ATOM     37  CB  GLU A   3      24.386  -9.567 201.787  0.00  0.00    +0.041 C 
BRANCH  37  38
ATOM     38  CG  GLU A   3      23.610  -9.620 200.451  0.00  0.00    +0.116 C 
BRANCH  38  39
ATOM     39  CD  GLU A   3      23.548  -8.265 199.725  0.00  0.00    +0.365 C 
ATOM     40  OE2 GLU A   3      24.064  -7.257 200.262  0.00  0.00    -0.246 OA
ATOM     41  OE1 GLU A   3      22.968  -8.207 198.616  0.00  0.00    -0.246 OA
ENDBRANCH  38  39
ENDBRANCH  37  38
ENDBRANCH  10  37
ENDBRANCH   6  10
ENDBRANCH   5   8
BRANCH   5  42
ATOM     42  CB  VAL A   4      26.366 -11.924 197.524  0.00  0.00    +0.027 C 
ATOM     43  CG2 VAL A   4      25.200 -12.762 198.081  0.00  0.00    +0.002 C 
ATOM     44  CG1 VAL A   4      25.832 -10.695 196.777  0.00  0.00    +0.002 C 
ENDBRANCH   5  42
ENDBRANCH   1   5
BRANCH   2  45
ATOM     45  CA  ARG A   5      30.747  -9.868 198.660  0.00  0.00    +0.149 C 
BRANCH  45  46
ATOM     46  C   ARG A   5      30.738  -9.001 197.395  0.00  0.00    +0.241 C 
ATOM     47  N   ASN A   6      29.666  -8.238 197.232  0.00  0.00    -0.297 N 
ATOM     48  H   ASN A   6      28.895  -8.304 197.927  0.00  0.00    +0.150 HD
ATOM     49  O   ARG A   5      31.672  -9.035 196.589  0.00  0.00    -0.273 OA
BRANCH  47  50
ATOM     50  CA  ASN A   6      29.525  -7.308 196.115  0.00  0.00    +0.158 C 
BRANCH  50  51
ATOM     51  C   ASN A   6      29.613  -7.977 194.738  0.00  0.00    +0.241 C 
ATOM     52  N   ALA A   7      29.078  -9.191 194.642  0.00  0.00    -0.297 N 
ATOM     53  H   ALA A   7      28.782  -9.678 195.512  0.00  0.00    +0.150 HD
ATOM     54  O   ASN A   6      30.171  -7.407 193.799  0.00  0.00    -0.273 OA
BRANCH  52  55
ATOM     55  CA  ALA A   7      28.891  -9.866 193.357  0.00  0.00    +0.149 C 
ATOM     56  CB  ALA A   7      28.417 -11.306 193.567  0.00  0.00    +0.031 C 
BRANCH  55  57
ATOM     57  C   ALA A   7      27.890  -9.107 192.485  0.00  0.00    +0.241 C 
ATOM     58  O   ALA A   7      26.880  -8.623 192.993  0.00  0.00    -0.273 OA
ATOM     59  N   PHE A   8      28.143  -9.019 191.175  0.00  0.00    -0.298 N 
ATOM     60  H   PHE A   8      28.997  -9.455 190.773  0.00  0.00    +0.150 HD
BRANCH  59  61
ATOM     61  CA  PHE A   8      27.210  -8.307 190.321  0.00  0.00    +0.141 C 
BRANCH  61  62
ATOM     62  C   PHE A   8      26.278  -9.251 189.565  0.00  0.00    +0.227 C 
ATOM     63  O   PHE A   8      26.655 -10.340 189.158  0.00  0.00    -0.286 OA
ENDBRANCH  61  62
BRANCH  61  64
ATOM     64  CB  PHE A   8      27.941  -7.354 189.350  0.00  0.00    +0.054 C 
BRANCH  64  65
ATOM     65  CG  PHE A   8      29.069  -7.977 188.541  0.00  0.00    -0.020 A 
ATOM     66  CD2 PHE A   8      30.402  -7.751 188.895  0.00  0.00    -0.004 A 
ATOM     67  CE2 PHE A   8      31.460  -8.293 188.143  0.00  0.00    -0.000 A 
ATOM     68  CZ  PHE A   8      31.183  -9.055 187.018  0.00  0.00    -0.000 A 
ATOM     69  CE1 PHE A   8      29.845  -9.273 186.637  0.00  0.00    -0.000 A 
ATOM     70  CD1 PHE A   8      28.803  -8.734 187.403  0.00  0.00    -0.004 A 
ENDBRANCH  64  65
ENDBRANCH  61  64
ENDBRANCH  59  61
ENDBRANCH  55  57
ENDBRANCH  52  55
ENDBRANCH  50  51
BRANCH  50  71
ATOM     71  CB  ASN A   6      30.574  -6.203 196.240  0.00  0.00    +0.114 C 
BRANCH  71  72
ATOM     72  CG  ASN A   6      30.196  -5.180 197.304  0.00  0.00    +0.222 C 
ATOM     73  ND2 ASN A   6      31.190  -4.656 198.022  0.00  0.00    -0.329 N 
ATOM     74 HD21 ASN A   6      30.981  -3.977 198.782  0.00  0.00    +0.145 HD
ATOM     75 HD22 ASN A   6      32.174  -4.926 197.822  0.00  0.00    +0.145 HD
ATOM     76  OD1 ASN A   6      29.013  -4.896 197.497  0.00  0.00    -0.275 OA
ENDBRANCH  71  72
ENDBRANCH  50  71
ENDBRANCH  47  50
ENDBRANCH  45  46
BRANCH  45  77
ATOM     77  CB  ARG A   5      31.714 -11.041 198.483  0.00  0.00    +0.033 C 
BRANCH  77  78
ATOM     78  CG  ARG A   5      31.919 -11.888 199.748  0.00  0.00    +0.045 C 
BRANCH  78  79
ATOM     79  CD  ARG A   5      32.789 -11.208 200.791  0.00  0.00    +0.174 C 
BRANCH  79  80
ATOM     80  NE  ARG A   5      33.148 -12.143 201.856  0.00  0.00    -0.265 N 
ATOM     81  CZ  ARG A   5      32.527 -12.247 203.026  0.00  0.00    +0.342 C 
ATOM     82  NH2 ARG A   5      32.945 -13.143 203.912  0.00  0.00    -0.292 N 
ATOM     83 HH21 ARG A   5      32.464 -13.230 204.830  0.00  0.00    +0.255 HD
ATOM     84 HH22 ARG A   5      33.754 -13.758 203.688  0.00  0.00    +0.255 HD
ATOM     85  NH1 ARG A   5      31.515 -11.445 203.329  0.00  0.00    -0.292 N 
ATOM     86 HH11 ARG A   5      31.037 -11.536 204.248  0.00  0.00    +0.255 HD
ATOM     87 HH12 ARG A   5      31.200 -10.725 202.648  0.00  0.00    +0.255 HD
ATOM     88  HE  ARG A   5      33.954 -12.777 201.684  0.00  0.00    +0.259 HD
ENDBRANCH  79  80
ENDBRANCH  78  79
ENDBRANCH  77  78
ENDBRANCH  45  77
ENDBRANCH   2  45
TORSDOF 31
REMARK  Name = ../refined-set-2016/4qij/4qij_pocket.pdb
REMARK  291 active torsions:
REMARK  status: ('A' for Active; 'I' for Inactive)
REMARK    1  A    between atoms: _1  and  _3
REMARK    2  A    between atoms: _3  and  _4
REMARK    3  A    between atoms: _3  and  _6
REMARK    4  A    between atoms: _6  and  _7
REMARK    5  A    between atoms: _7  and  _8
REMARK    6  A    between atoms: _8  and  _9
REMARK    7  A    between atoms: _19  and  _20
REMARK    8  A    between atoms: _25  and  _27
REMARK    9  A    between atoms: _27  and  _28
REMARK   10  A    between atoms: _27  and  _30
REMARK   11  A    between atoms: _30  and  _31
REMARK   12  A    between atoms: _31  and  _32
REMARK   13  A    between atoms: _35  and  _37
REMARK   14  A    between atoms: _37  and  _38
REMARK   15  A    between atoms: _37  and  _40
REMARK   16  A    between atoms: _43  and  _45
REMARK   17  A    between atoms: _45  and  _46
REMARK   18  A    between atoms: _45  and  _48
REMARK   19  A    between atoms: _48  and  _49
REMARK   20  A    between atoms: _49  and  _50
REMARK   21  A    between atoms: _50  and  _51
REMARK   22  A    between atoms: _60  and  _62
REMARK   23  A    between atoms: _62  and  _63
REMARK   24  A    between atoms: _62  and  _65
REMARK   25  A    between atoms: _65  and  _66
REMARK   26  A    between atoms: _71  and  _73
REMARK   27  A    between atoms: _73  and  _74
REMARK   28  A    between atoms: _77  and  _79
REMARK   29  A    between atoms: _79  and  _80
REMARK   30  A    between atoms: _79  and  _82
REMARK   31  A    between atoms: _82  and  _83
REMARK   32  A    between atoms: _89  and  _91
REMARK   33  A    between atoms: _91  and  _92
REMARK   34  A    between atoms: _91  and  _94
REMARK   35  A    between atoms: _97  and  _99
REMARK   36  A    between atoms: _99  and  _100
REMARK   37  A    between atoms: _99  and  _102
REMARK   38  A    between atoms: _102  and  _103
REMARK   39  A    between atoms: _105  and  _107
REMARK   40  A    between atoms: _107  and  _108
REMARK   41  A    between atoms: _107  and  _110
REMARK   42  A    between atoms: _110  and  _111
REMARK   43  A    between atoms: _111  and  _112
REMARK   44  A    between atoms: _112  and  _113
REMARK   45  A    between atoms: _113  and  _114
REMARK   46  A    between atoms: _118  and  _120
REMARK   47  A    between atoms: _120  and  _121
REMARK   48  A    between atoms: _120  and  _123
REMARK   49  A    between atoms: _123  and  _124
REMARK   50  A    between atoms: _127  and  _129
REMARK   51  A    between atoms: _129  and  _130
REMARK   52  A    between atoms: _132  and  _134
REMARK   53  A    between atoms: _134  and  _135
REMARK   54  A    between atoms: _134  and  _137
REMARK   55  A    between atoms: _137  and  _138
REMARK   56  A    between atoms: _148  and  _150
REMARK   57  A    between atoms: _150  and  _151
REMARK   58  A    between atoms: _154  and  _156
REMARK   59  A    between atoms: _156  and  _157
REMARK   60  A    between atoms: _156  and  _159
REMARK   61  A    between atoms: _159  and  _160
REMARK   62  A    between atoms: _166  and  _168
REMARK   63  A    between atoms: _168  and  _169
REMARK   64  A    between atoms: _168  and  _171
REMARK   65  A    between atoms: _173  and  _175
REMARK   66  A    between atoms: _175  and  _176
REMARK   67  A    between atoms: _175  and  _178
REMARK   68  A    between atoms: _178  and  _179
REMARK   69  A    between atoms: _181  and  _183
REMARK   70  A    between atoms: _183  and  _184
REMARK   71  A    between atoms: _186  and  _188
REMARK   72  A    between atoms: _188  and  _189
REMARK   73  A    between atoms: _191  and  _193
REMARK   74  A    between atoms: _193  and  _194
REMARK   75  A    between atoms: _193  and  _196
REMARK   76  A    between atoms: _196  and  _197
REMARK   77  A    between atoms: _200  and  _202
REMARK   78  A    between atoms: _202  and  _203
REMARK   79  A    between atoms: _202  and  _205
REMARK   80  A    between atoms: _205  and  _206
REMARK   81  A    between atoms: _206  and  _207
REMARK   82  A    between atoms: _212  and  _214
REMARK   83  A    between atoms: _214  and  _215
REMARK   84  A    between atoms: _214  and  _217
REMARK   85  A    between atoms: _217  and  _218
REMARK   86  A    between atoms: _218  and  _219
REMARK   87  A    between atoms: _219  and  _220
REMARK   88  A    between atoms: _229  and  _231
REMARK   89  A    between atoms: _231  and  _232
REMARK   90  A    between atoms: _231  and  _234
REMARK   91  A    between atoms: _234  and  _235
REMARK   92  A    between atoms: _238  and  _240
REMARK   93  A    between atoms: _240  and  _241
REMARK   94  A    between atoms: _240  and  _243
REMARK   95  A    between atoms: _243  and  _244
REMARK   96  A    between atoms: _244  and  _245
REMARK   97  A    between atoms: _245  and  _246
REMARK   98  A    between atoms: _255  and  _257
REMARK   99  A    between atoms: _257  and  _258
REMARK  100  A    between atoms: _260  and  _262
REMARK  101  A    between atoms: _262  and  _263
REMARK  102  A    between atoms: _262  and  _265
REMARK  103  A    between atoms: _265  and  _266
REMARK  104  A    between atoms: _271  and  _272
REMARK  105  A    between atoms: _274  and  _276
REMARK  106  A    between atoms: _276  and  _277
REMARK  107  A    between atoms: _276  and  _279
REMARK  108  A    between atoms: _279  and  _280
REMARK  109  A    between atoms: _283  and  _285
REMARK  110  A    between atoms: _285  and  _286
REMARK  111  A    between atoms: _285  and  _288
REMARK  112  A    between atoms: _288  and  _289
REMARK  113  A    between atoms: _289  and  _290
REMARK  114  A    between atoms: _290  and  _291
REMARK  115  A    between atoms: _300  and  _302
REMARK  116  A    between atoms: _302  and  _303
REMARK  117  A    between atoms: _302  and  _305
REMARK  118  A    between atoms: _305  and  _306
REMARK  119  A    between atoms: _309  and  _311
REMARK  120  A    between atoms: _311  and  _312
REMARK  121  A    between atoms: _311  and  _314
REMARK  122  A    between atoms: _314  and  _315
REMARK  123  A    between atoms: _320  and  _322
REMARK  124  A    between atoms: _322  and  _323
REMARK  125  A    between atoms: _322  and  _325
REMARK  126  A    between atoms: _325  and  _326
REMARK  127  A    between atoms: _329  and  _331
REMARK  128  A    between atoms: _331  and  _332
REMARK  129  A    between atoms: _331  and  _334
REMARK  130  A    between atoms: _334  and  _335
REMARK  131  A    between atoms: _338  and  _340
REMARK  132  A    between atoms: _340  and  _341
REMARK  133  A    between atoms: _340  and  _343
REMARK  134  A    between atoms: _343  and  _344
REMARK  135  A    between atoms: _344  and  _345
REMARK  136  A    between atoms: _348  and  _350
REMARK  137  A    between atoms: _350  and  _351
REMARK  138  A    between atoms: _350  and  _353
REMARK  139  A    between atoms: _353  and  _354
REMARK  140  A    between atoms: _354  and  _355
REMARK  141  A    between atoms: _360  and  _362
REMARK  142  A    between atoms: _362  and  _363
REMARK  143  A    between atoms: _365  and  _367
REMARK  144  A    between atoms: _367  and  _368
REMARK  145  A    between atoms: _367  and  _370
REMARK  146  A    between atoms: _370  and  _371
REMARK  147  A    between atoms: _381  and  _383
REMARK  148  A    between atoms: _383  and  _384
REMARK  149  A    between atoms: _387  and  _389
REMARK  150  A    between atoms: _389  and  _390
REMARK  151  A    between atoms: _393  and  _395
REMARK  152  A    between atoms: _395  and  _396
REMARK  153  A    between atoms: _398  and  _400
REMARK  154  A    between atoms: _400  and  _401
REMARK  155  A    between atoms: _403  and  _405
REMARK  156  A    between atoms: _405  and  _406
REMARK  157  A    between atoms: _408  and  _410
REMARK  158  A    between atoms: _410  and  _411
REMARK  159  A    between atoms: _410  and  _413
REMARK  160  A    between atoms: _413  and  _414
REMARK  161  A    between atoms: _419  and  _421
REMARK  162  A    between atoms: _421  and  _422
REMARK  163  A    between atoms: _421  and  _424
REMARK  164  A    between atoms: _424  and  _425
REMARK  165  A    between atoms: _427  and  _429
REMARK  166  A    between atoms: _429  and  _430
REMARK  167  A    between atoms: _429  and  _432
REMARK  168  A    between atoms: _432  and  _433
REMARK  169  A    between atoms: _436  and  _438
REMARK  170  A    between atoms: _438  and  _439
REMARK  171  A    between atoms: _438  and  _441
REMARK  172  A    between atoms: _441  and  _442
REMARK  173  A    between atoms: _442  and  _443
REMARK  174  A    between atoms: _443  and  _444
REMARK  175  A    between atoms: _453  and  _455
REMARK  176  A    between atoms: _455  and  _456
REMARK  177  A    between atoms: _455  and  _458
REMARK  178  A    between atoms: _458  and  _459
REMARK  179  A    between atoms: _465  and  _467
REMARK  180  A    between atoms: _467  and  _468
REMARK  181  A    between atoms: _467  and  _470
REMARK  182  A    between atoms: _470  and  _471
REMARK  183  A    between atoms: _471  and  _472
REMARK  184  A    between atoms: _472  and  _473
REMARK  185  A    between atoms: _473  and  _474
REMARK  186  A    between atoms: _478  and  _480
REMARK  187  A    between atoms: _480  and  _481
REMARK  188  A    between atoms: _480  and  _483
REMARK  189  A    between atoms: _483  and  _484
REMARK  190  A    between atoms: _484  and  _485
REMARK  191  A    between atoms: _490  and  _492
REMARK  192  A    between atoms: _492  and  _493
REMARK  193  A    between atoms: _492  and  _495
REMARK  194  A    between atoms: _495  and  _496
REMARK  195  A    between atoms: _499  and  _501
REMARK  196  A    between atoms: _501  and  _502
REMARK  197  A    between atoms: _501  and  _504
REMARK  198  A    between atoms: _504  and  _505
REMARK  199  A    between atoms: _508  and  _510
REMARK  200  A    between atoms: _510  and  _511
REMARK  201  A    between atoms: _514  and  _516
REMARK  202  A    between atoms: _516  and  _517
REMARK  203  A    between atoms: _516  and  _519
REMARK  204  A    between atoms: _519  and  _520
REMARK  205  A    between atoms: _523  and  _525
REMARK  206  A    between atoms: _525  and  _526
REMARK  207  A    between atoms: _525  and  _528
REMARK  208  A    between atoms: _531  and  _533
REMARK  209  A    between atoms: _533  and  _534
REMARK  210  A    between atoms: _536  and  _538
REMARK  211  A    between atoms: _538  and  _539
REMARK  212  A    between atoms: _538  and  _541
REMARK  213  A    between atoms: _541  and  _542
REMARK  214  A    between atoms: _544  and  _546
REMARK  215  A    between atoms: _546  and  _547
REMARK  216  A    between atoms: _546  and  _549
REMARK  217  A    between atoms: _549  and  _550
REMARK  218  A    between atoms: _556  and  _558
REMARK  219  A    between atoms: _558  and  _559
REMARK  220  A    between atoms: _558  and  _561
REMARK  221  A    between atoms: _561  and  _562
REMARK  222  A    between atoms: _565  and  _567
REMARK  223  A    between atoms: _567  and  _568
REMARK  224  A    between atoms: _570  and  _572
REMARK  225  A    between atoms: _572  and  _573
REMARK  226  A    between atoms: _575  and  _577
REMARK  227  A    between atoms: _577  and  _578
REMARK  228  A    between atoms: _577  and  _580
REMARK  229  A    between atoms: _580  and  _581
REMARK  230  A    between atoms: _586  and  _587
REMARK  231  A    between atoms: _589  and  _591
REMARK  232  A    between atoms: _591  and  _592
REMARK  233  A    between atoms: _594  and  _596
REMARK  234  A    between atoms: _596  and  _597
REMARK  235  A    between atoms: _596  and  _599
REMARK  236  A    between atoms: _599  and  _600
REMARK  237  A    between atoms: _606  and  _608
REMARK  238  A    between atoms: _608  and  _609
REMARK  239  A    between atoms: _608  and  _611
REMARK  240  A    between atoms: _611  and  _612
REMARK  241  A    between atoms: _615  and  _617
REMARK  242  A    between atoms: _617  and  _618
REMARK  243  A    between atoms: _617  and  _620
REMARK  244  A    between atoms: _620  and  _621
REMARK  245  A    between atoms: _621  and  _622
REMARK  246  A    between atoms: _627  and  _629
REMARK  247  A    between atoms: _629  and  _630
REMARK  248  A    between atoms: _633  and  _635
REMARK  249  A    between atoms: _635  and  _636
REMARK  250  A    between atoms: _638  and  _640
REMARK  251  A    between atoms: _640  and  _641
REMARK  252  A    between atoms: _640  and  _643
REMARK  253  A    between atoms: _643  and  _644
REMARK  254  A    between atoms: _644  and  _645
REMARK  255  A    between atoms: _648  and  _650
REMARK  256  A    between atoms: _650  and  _651
REMARK  257  A    between atoms: _650  and  _653
REMARK  258  A    between atoms: _653  and  _654
REMARK  259  A    between atoms: _657  and  _659
REMARK  260  A    between atoms: _659  and  _660
REMARK  261  A    between atoms: _659  and  _662
REMARK  262  A    between atoms: _662  and  _663
REMARK  263  A    between atoms: _663  and  _664
REMARK  264  A    between atoms: _664  and  _665
REMARK  265  A    between atoms: _674  and  _676
REMARK  266  A    between atoms: _676  and  _677
REMARK  267  A    between atoms: _676  and  _679
REMARK  268  A    between atoms: _679  and  _680
REMARK  269  A    between atoms: _685  and  _686
REMARK  270  A    between atoms: _688  and  _690
REMARK  271  A    between atoms: _690  and  _691
REMARK  272  A    between atoms: _693  and  _695
REMARK  273  A    between atoms: _695  and  _696
REMARK  274  A    between atoms: _695  and  _698
REMARK  275  A    between atoms: _698  and  _699
REMARK  276  A    between atoms: _705  and  _707
REMARK  277  A    between atoms: _707  and  _708
REMARK  278  A    between atoms: _707  and  _710
REMARK  279  A    between atoms: _710  and  _711
REMARK  280  A    between atoms: _714  and  _716
REMARK  281  A    between atoms: _716  and  _717
REMARK  282  A    between atoms: _716  and  _719
REMARK  283  A    between atoms: _719  and  _720
REMARK  284  A    between atoms: _720  and  _721
REMARK  285  A    between atoms: _726  and  _728
REMARK  286  A    between atoms: _728  and  _729
REMARK  287  A    between atoms: _728  and  _731
REMARK  288  A    between atoms: _731  and  _732
REMARK  289  A    between atoms: _732  and  _733
REMARK  290  A    between atoms: _733  and  _734
REMARK  291  A    between atoms: _734  and  _735
REMARK                            x       y       z     vdW  Elec       q    Type
REMARK                         _______ _______ _______ _____ _____    ______ ____
ROOT
ATOM      1  CA  VAL A   1      25.785  -4.110 185.539  0.00  0.00    +0.133 C 
ENDROOT
BRANCH   1   2
ATOM      2  CB  VAL A   1      25.977  -5.257 184.543  0.00  0.00    +0.023 C 
ATOM      3  CG2 VAL A   1      26.690  -6.418 185.222  0.00  0.00    +0.002 C 
ATOM      4  CG1 VAL A   1      26.772  -4.765 183.344  0.00  0.00    +0.002 C 
ENDBRANCH   1   2
BRANCH   1   5
ATOM      5  N   VAL A   1      25.010  -4.543 186.684  0.00  0.00    -0.239 NA
ATOM      6  H   VAL A   1      24.609  -5.502 186.699  0.00  0.00    +0.142 HD
ENDBRANCH   1   5
BRANCH   1   7
ATOM      7  C   VAL A   1      25.124  -2.923 184.837  0.00  0.00    +0.224 C 
ATOM      8  O   VAL A   1      25.792  -1.961 184.466  0.00  0.00    -0.287 OA
ENDBRANCH   1   7
TORSDOF 3
REMARK  Name = ../refined-set-2016/4qij/4qij_pocket.pdb
REMARK  291 active torsions:
REMARK  status: ('A' for Active; 'I' for Inactive)
REMARK    1  A    between atoms: _1  and  _3
REMARK    2  A    between atoms: _3  and  _4
REMARK    3  A    between atoms: _3  and  _6
REMARK    4  A    between atoms: _6  and  _7
REMARK    5  A    between atoms: _7  and  _8
REMARK    6  A    between atoms: _8  and  _9
REMARK    7  A    between atoms: _19  and  _20
REMARK    8  A    between atoms: _25  and  _27
REMARK    9  A    between atoms: _27  and  _28
REMARK   10  A    between atoms: _27  and  _30
REMARK   11  A    between atoms: _30  and  _31
REMARK   12  A    between atoms: _31  and  _32
REMARK   13  A    between atoms: _35  and  _37
REMARK   14  A    between atoms: _37  and  _38
REMARK   15  A    between atoms: _37  and  _40
REMARK   16  A    between atoms: _43  and  _45
REMARK   17  A    between atoms: _45  and  _46
REMARK   18  A    between atoms: _45  and  _48
REMARK   19  A    between atoms: _48  and  _49
REMARK   20  A    between atoms: _49  and  _50
REMARK   21  A    between atoms: _50  and  _51
REMARK   22  A    between atoms: _60  and  _62
REMARK   23  A    between atoms: _62  and  _63
REMARK   24  A    between atoms: _62  and  _65
REMARK   25  A    between atoms: _65  and  _66
REMARK   26  A    between atoms: _71  and  _73
REMARK   27  A    between atoms: _73  and  _74
REMARK   28  A    between atoms: _77  and  _79
REMARK   29  A    between atoms: _79  and  _80
REMARK   30  A    between atoms: _79  and  _82
REMARK   31  A    between atoms: _82  and  _83
REMARK   32  A    between atoms: _89  and  _91
REMARK   33  A    between atoms: _91  and  _92
REMARK   34  A    between atoms: _91  and  _94
REMARK   35  A    between atoms: _97  and  _99
REMARK   36  A    between atoms: _99  and  _100
REMARK   37  A    between atoms: _99  and  _102
REMARK   38  A    between atoms: _102  and  _103
REMARK   39  A    between atoms: _105  and  _107
REMARK   40  A    between atoms: _107  and  _108
REMARK   41  A    between atoms: _107  and  _110
REMARK   42  A    between atoms: _110  and  _111
REMARK   43  A    between atoms: _111  and  _112
REMARK   44  A    between atoms: _112  and  _113
REMARK   45  A    between atoms: _113  and  _114
REMARK   46  A    between atoms: _118  and  _120
REMARK   47  A    between atoms: _120  and  _121
REMARK   48  A    between atoms: _120  and  _123
REMARK   49  A    between atoms: _123  and  _124
REMARK   50  A    between atoms: _127  and  _129
REMARK   51  A    between atoms: _129  and  _130
REMARK   52  A    between atoms: _132  and  _134
REMARK   53  A    between atoms: _134  and  _135
REMARK   54  A    between atoms: _134  and  _137
REMARK   55  A    between atoms: _137  and  _138
REMARK   56  A    between atoms: _148  and  _150
REMARK   57  A    between atoms: _150  and  _151
REMARK   58  A    between atoms: _154  and  _156
REMARK   59  A    between atoms: _156  and  _157
REMARK   60  A    between atoms: _156  and  _159
REMARK   61  A    between atoms: _159  and  _160
REMARK   62  A    between atoms: _166  and  _168
REMARK   63  A    between atoms: _168  and  _169
REMARK   64  A    between atoms: _168  and  _171
REMARK   65  A    between atoms: _173  and  _175
REMARK   66  A    between atoms: _175  and  _176
REMARK   67  A    between atoms: _175  and  _178
REMARK   68  A    between atoms: _178  and  _179
REMARK   69  A    between atoms: _181  and  _183
REMARK   70  A    between atoms: _183  and  _184
REMARK   71  A    between atoms: _186  and  _188
REMARK   72  A    between atoms: _188  and  _189
REMARK   73  A    between atoms: _191  and  _193
REMARK   74  A    between atoms: _193  and  _194
REMARK   75  A    between atoms: _193  and  _196
REMARK   76  A    between atoms: _196  and  _197
REMARK   77  A    between atoms: _200  and  _202
REMARK   78  A    between atoms: _202  and  _203
REMARK   79  A    between atoms: _202  and  _205
REMARK   80  A    between atoms: _205  and  _206
REMARK   81  A    between atoms: _206  and  _207
REMARK   82  A    between atoms: _212  and  _214
REMARK   83  A    between atoms: _214  and  _215
REMARK   84  A    between atoms: _214  and  _217
REMARK   85  A    between atoms: _217  and  _218
REMARK   86  A    between atoms: _218  and  _219
REMARK   87  A    between atoms: _219  and  _220
REMARK   88  A    between atoms: _229  and  _231
REMARK   89  A    between atoms: _231  and  _232
REMARK   90  A    between atoms: _231  and  _234
REMARK   91  A    between atoms: _234  and  _235
REMARK   92  A    between atoms: _238  and  _240
REMARK   93  A    between atoms: _240  and  _241
REMARK   94  A    between atoms: _240  and  _243
REMARK   95  A    between atoms: _243  and  _244
REMARK   96  A    between atoms: _244  and  _245
REMARK   97  A    between atoms: _245  and  _246
REMARK   98  A    between atoms: _255  and  _257
REMARK   99  A    between atoms: _257  and  _258
REMARK  100  A    between atoms: _260  and  _262
REMARK  101  A    between atoms: _262  and  _263
REMARK  102  A    between atoms: _262  and  _265
REMARK  103  A    between atoms: _265  and  _266
REMARK  104  A    between atoms: _271  and  _272
REMARK  105  A    between atoms: _274  and  _276
REMARK  106  A    between atoms: _276  and  _277
REMARK  107  A    between atoms: _276  and  _279
REMARK  108  A    between atoms: _279  and  _280
REMARK  109  A    between atoms: _283  and  _285
REMARK  110  A    between atoms: _285  and  _286
REMARK  111  A    between atoms: _285  and  _288
REMARK  112  A    between atoms: _288  and  _289
REMARK  113  A    between atoms: _289  and  _290
REMARK  114  A    between atoms: _290  and  _291
REMARK  115  A    between atoms: _300  and  _302
REMARK  116  A    between atoms: _302  and  _303
REMARK  117  A    between atoms: _302  and  _305
REMARK  118  A    between atoms: _305  and  _306
REMARK  119  A    between atoms: _309  and  _311
REMARK  120  A    between atoms: _311  and  _312
REMARK  121  A    between atoms: _311  and  _314
REMARK  122  A    between atoms: _314  and  _315
REMARK  123  A    between atoms: _320  and  _322
REMARK  124  A    between atoms: _322  and  _323
REMARK  125  A    between atoms: _322  and  _325
REMARK  126  A    between atoms: _325  and  _326
REMARK  127  A    between atoms: _329  and  _331
REMARK  128  A    between atoms: _331  and  _332
REMARK  129  A    between atoms: _331  and  _334
REMARK  130  A    between atoms: _334  and  _335
REMARK  131  A    between atoms: _338  and  _340
REMARK  132  A    between atoms: _340  and  _341
REMARK  133  A    between atoms: _340  and  _343
REMARK  134  A    between atoms: _343  and  _344
REMARK  135  A    between atoms: _344  and  _345
REMARK  136  A    between atoms: _348  and  _350
REMARK  137  A    between atoms: _350  and  _351
REMARK  138  A    between atoms: _350  and  _353
REMARK  139  A    between atoms: _353  and  _354
REMARK  140  A    between atoms: _354  and  _355
REMARK  141  A    between atoms: _360  and  _362
REMARK  142  A    between atoms: _362  and  _363
REMARK  143  A    between atoms: _365  and  _367
REMARK  144  A    between atoms: _367  and  _368
REMARK  145  A    between atoms: _367  and  _370
REMARK  146  A    between atoms: _370  and  _371
REMARK  147  A    between atoms: _381  and  _383
REMARK  148  A    between atoms: _383  and  _384
REMARK  149  A    between atoms: _387  and  _389
REMARK  150  A    between atoms: _389  and  _390
REMARK  151  A    between atoms: _393  and  _395
REMARK  152  A    between atoms: _395  and  _396
REMARK  153  A    between atoms: _398  and  _400
REMARK  154  A    between atoms: _400  and  _401
REMARK  155  A    between atoms: _403  and  _405
REMARK  156  A    between atoms: _405  and  _406
REMARK  157  A    between atoms: _408  and  _410
REMARK  158  A    between atoms: _410  and  _411
REMARK  159  A    between atoms: _410  and  _413
REMARK  160  A    between atoms: _413  and  _414
REMARK  161  A    between atoms: _419  and  _421
REMARK  162  A    between atoms: _421  and  _422
REMARK  163  A    between atoms: _421  and  _424
REMARK  164  A    between atoms: _424  and  _425
REMARK  165  A    between atoms: _427  and  _429
REMARK  166  A    between atoms: _429  and  _430
REMARK  167  A    between atoms: _429  and  _432
REMARK  168  A    between atoms: _432  and  _433
REMARK  169  A    between atoms: _436  and  _438
REMARK  170  A    between atoms: _438  and  _439
REMARK  171  A    between atoms: _438  and  _441
REMARK  172  A    between atoms: _441  and  _442
REMARK  173  A    between atoms: _442  and  _443
REMARK  174  A    between atoms: _443  and  _444
REMARK  175  A    between atoms: _453  and  _455
REMARK  176  A    between atoms: _455  and  _456
REMARK  177  A    between atoms: _455  and  _458
REMARK  178  A    between atoms: _458  and  _459
REMARK  179  A    between atoms: _465  and  _467
REMARK  180  A    between atoms: _467  and  _468
REMARK  181  A    between atoms: _467  and  _470
REMARK  182  A    between atoms: _470  and  _471
REMARK  183  A    between atoms: _471  and  _472
REMARK  184  A    between atoms: _472  and  _473
REMARK  185  A    between atoms: _473  and  _474
REMARK  186  A    between atoms: _478  and  _480
REMARK  187  A    between atoms: _480  and  _481
REMARK  188  A    between atoms: _480  and  _483
REMARK  189  A    between atoms: _483  and  _484
REMARK  190  A    between atoms: _484  and  _485
REMARK  191  A    between atoms: _490  and  _492
REMARK  192  A    between atoms: _492  and  _493
REMARK  193  A    between atoms: _492  and  _495
REMARK  194  A    between atoms: _495  and  _496
REMARK  195  A    between atoms: _499  and  _501
REMARK  196  A    between atoms: _501  and  _502
REMARK  197  A    between atoms: _501  and  _504
REMARK  198  A    between atoms: _504  and  _505
REMARK  199  A    between atoms: _508  and  _510
REMARK  200  A    between atoms: _510  and  _511
REMARK  201  A    between atoms: _514  and  _516
REMARK  202  A    between atoms: _516  and  _517
REMARK  203  A    between atoms: _516  and  _519
REMARK  204  A    between atoms: _519  and  _520
REMARK  205  A    between atoms: _523  and  _525
REMARK  206  A    between atoms: _525  and  _526
REMARK  207  A    between atoms: _525  and  _528
REMARK  208  A    between atoms: _531  and  _533
REMARK  209  A    between atoms: _533  and  _534
REMARK  210  A    between atoms: _536  and  _538
REMARK  211  A    between atoms: _538  and  _539
REMARK  212  A    between atoms: _538  and  _541
REMARK  213  A    between atoms: _541  and  _542
REMARK  214  A    between atoms: _544  and  _546
REMARK  215  A    between atoms: _546  and  _547
REMARK  216  A    between atoms: _546  and  _549
REMARK  217  A    between atoms: _549  and  _550
REMARK  218  A    between atoms: _556  and  _558
REMARK  219  A    between atoms: _558  and  _559
REMARK  220  A    between atoms: _558  and  _561
REMARK  221  A    between atoms: _561  and  _562
REMARK  222  A    between atoms: _565  and  _567
REMARK  223  A    between atoms: _567  and  _568
REMARK  224  A    between atoms: _570  and  _572
REMARK  225  A    between atoms: _572  and  _573
REMARK  226  A    between atoms: _575  and  _577
REMARK  227  A    between atoms: _577  and  _578
REMARK  228  A    between atoms: _577  and  _580
REMARK  229  A    between atoms: _580  and  _581
REMARK  230  A    between atoms: _586  and  _587
REMARK  231  A    between atoms: _589  and  _591
REMARK  232  A    between atoms: _591  and  _592
REMARK  233  A    between atoms: _594  and  _596
REMARK  234  A    between atoms: _596  and  _597
REMARK  235  A    between atoms: _596  and  _599
REMARK  236  A    between atoms: _599  and  _600
REMARK  237  A    between atoms: _606  and  _608
REMARK  238  A    between atoms: _608  and  _609
REMARK  239  A    between atoms: _608  and  _611
REMARK  240  A    between atoms: _611  and  _612
REMARK  241  A    between atoms: _615  and  _617
REMARK  242  A    between atoms: _617  and  _618
REMARK  243  A    between atoms: _617  and  _620
REMARK  244  A    between atoms: _620  and  _621
REMARK  245  A    between atoms: _621  and  _622
REMARK  246  A    between atoms: _627  and  _629
REMARK  247  A    between atoms: _629  and  _630
REMARK  248  A    between atoms: _633  and  _635
REMARK  249  A    between atoms: _635  and  _636
REMARK  250  A    between atoms: _638  and  _640
REMARK  251  A    between atoms: _640  and  _641
REMARK  252  A    between atoms: _640  and  _643
REMARK  253  A    between atoms: _643  and  _644
REMARK  254  A    between atoms: _644  and  _645
REMARK  255  A    between atoms: _648  and  _650
REMARK  256  A    between atoms: _650  and  _651
REMARK  257  A    between atoms: _650  and  _653
REMARK  258  A    between atoms: _653  and  _654
REMARK  259  A    between atoms: _657  and  _659
REMARK  260  A    between atoms: _659  and  _660
REMARK  261  A    between atoms: _659  and  _662
REMARK  262  A    between atoms: _662  and  _663
REMARK  263  A    between atoms: _663  and  _664
REMARK  264  A    between atoms: _664  and  _665
REMARK  265  A    between atoms: _674  and  _676
REMARK  266  A    between atoms: _676  and  _677
REMARK  267  A    between atoms: _676  and  _679
REMARK  268  A    between atoms: _679  and  _680
REMARK  269  A    between atoms: _685  and  _686
REMARK  270  A    between atoms: _688  and  _690
REMARK  271  A    between atoms: _690  and  _691
REMARK  272  A    between atoms: _693  and  _695
REMARK  273  A    between atoms: _695  and  _696
REMARK  274  A    between atoms: _695  and  _698
REMARK  275  A    between atoms: _698  and  _699
REMARK  276  A    between atoms: _705  and  _707
REMARK  277  A    between atoms: _707  and  _708
REMARK  278  A    between atoms: _707  and  _710
REMARK  279  A    between atoms: _710  and  _711
REMARK  280  A    between atoms: _714  and  _716
REMARK  281  A    between atoms: _716  and  _717
REMARK  282  A    between atoms: _716  and  _719
REMARK  283  A    between atoms: _719  and  _720
REMARK  284  A    between atoms: _720  and  _721
REMARK  285  A    between atoms: _726  and  _728
REMARK  286  A    between atoms: _728  and  _729
REMARK  287  A    between atoms: _728  and  _731
REMARK  288  A    between atoms: _731  and  _732
REMARK  289  A    between atoms: _732  and  _733
REMARK  290  A    between atoms: _733  and  _734
REMARK  291  A    between atoms: _734  and  _735
REMARK                            x       y       z     vdW  Elec       q    Type
REMARK                         _______ _______ _______ _____ _____    ______ ____
ROOT
ATOM      1  CA  SER A   1      28.753  -7.595 204.965  0.00  0.00    +0.163 C 
ENDROOT
BRANCH   1   2
ATOM      2  N   SER A   1      29.930  -6.737 204.935  0.00  0.00    -0.237 NA
ATOM      3  H   SER A   1      30.866  -7.148 204.741  0.00  0.00    +0.142 HD
ENDBRANCH   1   2
BRANCH   1   4
ATOM      4  CB  SER A   1      28.062  -7.454 206.319  0.00  0.00    +0.227 C 
ATOM      5  OG  SER A   1      28.706  -7.569 207.355  0.00  0.00    -0.287 OA
ENDBRANCH   1   4
BRANCH   1   6
ATOM      6  C   SER A   1      29.132  -9.056 204.740  0.00  0.00    +0.162 C 
BRANCH   6   7
ATOM      7  O   SER A   1      28.035  -9.898 205.041  0.00  0.00    -0.380 OA
ATOM      8  H   SER A   1      28.294 -10.842 204.891  0.00  0.00    +0.211 HD
ENDBRANCH   6   7
ENDBRANCH   1   6
TORSDOF 4
REMARK  Name = ../refined-set-2016/4qij/4qij_pocket.pdb
REMARK  291 active torsions:
REMARK  status: ('A' for Active; 'I' for Inactive)
REMARK    1  A    between atoms: _1  and  _3
REMARK    2  A    between atoms: _3  and  _4
REMARK    3  A    between atoms: _3  and  _6
REMARK    4  A    between atoms: _6  and  _7
REMARK    5  A    between atoms: _7  and  _8
REMARK    6  A    between atoms: _8  and  _9
REMARK    7  A    between atoms: _19  and  _20
REMARK    8  A    between atoms: _25  and  _27
REMARK    9  A    between atoms: _27  and  _28
REMARK   10  A    between atoms: _27  and  _30
REMARK   11  A    between atoms: _30  and  _31
REMARK   12  A    between atoms: _31  and  _32
REMARK   13  A    between atoms: _35  and  _37
REMARK   14  A    between atoms: _37  and  _38
REMARK   15  A    between atoms: _37  and  _40
REMARK   16  A    between atoms: _43  and  _45
REMARK   17  A    between atoms: _45  and  _46
REMARK   18  A    between atoms: _45  and  _48
REMARK   19  A    between atoms: _48  and  _49
REMARK   20  A    between atoms: _49  and  _50
REMARK   21  A    between atoms: _50  and  _51
REMARK   22  A    between atoms: _60  and  _62
REMARK   23  A    between atoms: _62  and  _63
REMARK   24  A    between atoms: _62  and  _65
REMARK   25  A    between atoms: _65  and  _66
REMARK   26  A    between atoms: _71  and  _73
REMARK   27  A    between atoms: _73  and  _74
REMARK   28  A    between atoms: _77  and  _79
REMARK   29  A    between atoms: _79  and  _80
REMARK   30  A    between atoms: _79  and  _82
REMARK   31  A    between atoms: _82  and  _83
REMARK   32  A    between atoms: _89  and  _91
REMARK   33  A    between atoms: _91  and  _92
REMARK   34  A    between atoms: _91  and  _94
REMARK   35  A    between atoms: _97  and  _99
REMARK   36  A    between atoms: _99  and  _100
REMARK   37  A    between atoms: _99  and  _102
REMARK   38  A    between atoms: _102  and  _103
REMARK   39  A    between atoms: _105  and  _107
REMARK   40  A    between atoms: _107  and  _108
REMARK   41  A    between atoms: _107  and  _110
REMARK   42  A    between atoms: _110  and  _111
REMARK   43  A    between atoms: _111  and  _112
REMARK   44  A    between atoms: _112  and  _113
REMARK   45  A    between atoms: _113  and  _114
REMARK   46  A    between atoms: _118  and  _120
REMARK   47  A    between atoms: _120  and  _121
REMARK   48  A    between atoms: _120  and  _123
REMARK   49  A    between atoms: _123  and  _124
REMARK   50  A    between atoms: _127  and  _129
REMARK   51  A    between atoms: _129  and  _130
REMARK   52  A    between atoms: _132  and  _134
REMARK   53  A    between atoms: _134  and  _135
REMARK   54  A    between atoms: _134  and  _137
REMARK   55  A    between atoms: _137  and  _138
REMARK   56  A    between atoms: _148  and  _150
REMARK   57  A    between atoms: _150  and  _151
REMARK   58  A    between atoms: _154  and  _156
REMARK   59  A    between atoms: _156  and  _157
REMARK   60  A    between atoms: _156  and  _159
REMARK   61  A    between atoms: _159  and  _160
REMARK   62  A    between atoms: _166  and  _168
REMARK   63  A    between atoms: _168  and  _169
REMARK   64  A    between atoms: _168  and  _171
REMARK   65  A    between atoms: _173  and  _175
REMARK   66  A    between atoms: _175  and  _176
REMARK   67  A    between atoms: _175  and  _178
REMARK   68  A    between atoms: _178  and  _179
REMARK   69  A    between atoms: _181  and  _183
REMARK   70  A    between atoms: _183  and  _184
REMARK   71  A    between atoms: _186  and  _188
REMARK   72  A    between atoms: _188  and  _189
REMARK   73  A    between atoms: _191  and  _193
REMARK   74  A    between atoms: _193  and  _194
REMARK   75  A    between atoms: _193  and  _196
REMARK   76  A    between atoms: _196  and  _197
REMARK   77  A    between atoms: _200  and  _202
REMARK   78  A    between atoms: _202  and  _203
REMARK   79  A    between atoms: _202  and  _205
REMARK   80  A    between atoms: _205  and  _206
REMARK   81  A    between atoms: _206  and  _207
REMARK   82  A    between atoms: _212  and  _214
REMARK   83  A    between atoms: _214  and  _215
REMARK   84  A    between atoms: _214  and  _217
REMARK   85  A    between atoms: _217  and  _218
REMARK   86  A    between atoms: _218  and  _219
REMARK   87  A    between atoms: _219  and  _220
REMARK   88  A    between atoms: _229  and  _231
REMARK   89  A    between atoms: _231  and  _232
REMARK   90  A    between atoms: _231  and  _234
REMARK   91  A    between atoms: _234  and  _235
REMARK   92  A    between atoms: _238  and  _240
REMARK   93  A    between atoms: _240  and  _241
REMARK   94  A    between atoms: _240  and  _243
REMARK   95  A    between atoms: _243  and  _244
REMARK   96  A    between atoms: _244  and  _245
REMARK   97  A    between atoms: _245  and  _246
REMARK   98  A    between atoms: _255  and  _257
REMARK   99  A    between atoms: _257  and  _258
REMARK  100  A    between atoms: _260  and  _262
REMARK  101  A    between atoms: _262  and  _263
REMARK  102  A    between atoms: _262  and  _265
REMARK  103  A    between atoms: _265  and  _266
REMARK  104  A    between atoms: _271  and  _272
REMARK  105  A    between atoms: _274  and  _276
REMARK  106  A    between atoms: _276  and  _277
REMARK  107  A    between atoms: _276  and  _279
REMARK  108  A    between atoms: _279  and  _280
REMARK  109  A    between atoms: _283  and  _285
REMARK  110  A    between atoms: _285  and  _286
REMARK  111  A    between atoms: _285  and  _288
REMARK  112  A    between atoms: _288  and  _289
REMARK  113  A    between atoms: _289  and  _290
REMARK  114  A    between atoms: _290  and  _291
REMARK  115  A    between atoms: _300  and  _302
REMARK  116  A    between atoms: _302  and  _303
REMARK  117  A    between atoms: _302  and  _305
REMARK  118  A    between atoms: _305  and  _306
REMARK  119  A    between atoms: _309  and  _311
REMARK  120  A    between atoms: _311  and  _312
REMARK  121  A    between atoms: _311  and  _314
REMARK  122  A    between atoms: _314  and  _315
REMARK  123  A    between atoms: _320  and  _322
REMARK  124  A    between atoms: _322  and  _323
REMARK  125  A    between atoms: _322  and  _325
REMARK  126  A    between atoms: _325  and  _326
REMARK  127  A    between atoms: _329  and  _331
REMARK  128  A    between atoms: _331  and  _332
REMARK  129  A    between atoms: _331  and  _334
REMARK  130  A    between atoms: _334  and  _335
REMARK  131  A    between atoms: _338  and  _340
REMARK  132  A    between atoms: _340  and  _341
REMARK  133  A    between atoms: _340  and  _343
REMARK  134  A    between atoms: _343  and  _344
REMARK  135  A    between atoms: _344  and  _345
REMARK  136  A    between atoms: _348  and  _350
REMARK  137  A    between atoms: _350  and  _351
REMARK  138  A    between atoms: _350  and  _353
REMARK  139  A    between atoms: _353  and  _354
REMARK  140  A    between atoms: _354  and  _355
REMARK  141  A    between atoms: _360  and  _362
REMARK  142  A    between atoms: _362  and  _363
REMARK  143  A    between atoms: _365  and  _367
REMARK  144  A    between atoms: _367  and  _368
REMARK  145  A    between atoms: _367  and  _370
REMARK  146  A    between atoms: _370  and  _371
REMARK  147  A    between atoms: _381  and  _383
REMARK  148  A    between atoms: _383  and  _384
REMARK  149  A    between atoms: _387  and  _389
REMARK  150  A    between atoms: _389  and  _390
REMARK  151  A    between atoms: _393  and  _395
REMARK  152  A    between atoms: _395  and  _396
REMARK  153  A    between atoms: _398  and  _400
REMARK  154  A    between atoms: _400  and  _401
REMARK  155  A    between atoms: _403  and  _405
REMARK  156  A    between atoms: _405  and  _406
REMARK  157  A    between atoms: _408  and  _410
REMARK  158  A    between atoms: _410  and  _411
REMARK  159  A    between atoms: _410  and  _413
REMARK  160  A    between atoms: _413  and  _414
REMARK  161  A    between atoms: _419  and  _421
REMARK  162  A    between atoms: _421  and  _422
REMARK  163  A    between atoms: _421  and  _424
REMARK  164  A    between atoms: _424  and  _425
REMARK  165  A    between atoms: _427  and  _429
REMARK  166  A    between atoms: _429  and  _430
REMARK  167  A    between atoms: _429  and  _432
REMARK  168  A    between atoms: _432  and  _433
REMARK  169  A    between atoms: _436  and  _438
REMARK  170  A    between atoms: _438  and  _439
REMARK  171  A    between atoms: _438  and  _441
REMARK  172  A    between atoms: _441  and  _442
REMARK  173  A    between atoms: _442  and  _443
REMARK  174  A    between atoms: _443  and  _444
REMARK  175  A    between atoms: _453  and  _455
REMARK  176  A    between atoms: _455  and  _456
REMARK  177  A    between atoms: _455  and  _458
REMARK  178  A    between atoms: _458  and  _459
REMARK  179  A    between atoms: _465  and  _467
REMARK  180  A    between atoms: _467  and  _468
REMARK  181  A    between atoms: _467  and  _470
REMARK  182  A    between atoms: _470  and  _471
REMARK  183  A    between atoms: _471  and  _472
REMARK  184  A    between atoms: _472  and  _473
REMARK  185  A    between atoms: _473  and  _474
REMARK  186  A    between atoms: _478  and  _480
REMARK  187  A    between atoms: _480  and  _481
REMARK  188  A    between atoms: _480  and  _483
REMARK  189  A    between atoms: _483  and  _484
REMARK  190  A    between atoms: _484  and  _485
REMARK  191  A    between atoms: _490  and  _492
REMARK  192  A    between atoms: _492  and  _493
REMARK  193  A    between atoms: _492  and  _495
REMARK  194  A    between atoms: _495  and  _496
REMARK  195  A    between atoms: _499  and  _501
REMARK  196  A    between atoms: _501  and  _502
REMARK  197  A    between atoms: _501  and  _504
REMARK  198  A    between atoms: _504  and  _505
REMARK  199  A    between atoms: _508  and  _510
REMARK  200  A    between atoms: _510  and  _511
REMARK  201  A    between atoms: _514  and  _516
REMARK  202  A    between atoms: _516  and  _517
REMARK  203  A    between atoms: _516  and  _519
REMARK  204  A    between atoms: _519  and  _520
REMARK  205  A    between atoms: _523  and  _525
REMARK  206  A    between atoms: _525  and  _526
REMARK  207  A    between atoms: _525  and  _528
REMARK  208  A    between atoms: _531  and  _533
REMARK  209  A    between atoms: _533  and  _534
REMARK  210  A    between atoms: _536  and  _538
REMARK  211  A    between atoms: _538  and  _539
REMARK  212  A    between atoms: _538  and  _541
REMARK  213  A    between atoms: _541  and  _542
REMARK  214  A    between atoms: _544  and  _546
REMARK  215  A    between atoms: _546  and  _547
REMARK  216  A    between atoms: _546  and  _549
REMARK  217  A    between atoms: _549  and  _550
REMARK  218  A    between atoms: _556  and  _558
REMARK  219  A    between atoms: _558  and  _559
REMARK  220  A    between atoms: _558  and  _561
REMARK  221  A    between atoms: _561  and  _562
REMARK  222  A    between atoms: _565  and  _567
REMARK  223  A    between atoms: _567  and  _568
REMARK  224  A    between atoms: _570  and  _572
REMARK  225  A    between atoms: _572  and  _573
REMARK  226  A    between atoms: _575  and  _577
REMARK  227  A    between atoms: _577  and  _578
REMARK  228  A    between atoms: _577  and  _580
REMARK  229  A    between atoms: _580  and  _581
REMARK  230  A    between atoms: _586  and  _587
REMARK  231  A    between atoms: _589  and  _591
REMARK  232  A    between atoms: _591  and  _592
REMARK  233  A    between atoms: _594  and  _596
REMARK  234  A    between atoms: _596  and  _597
REMARK  235  A    between atoms: _596  and  _599
REMARK  236  A    between atoms: _599  and  _600
REMARK  237  A    between atoms: _606  and  _608
REMARK  238  A    between atoms: _608  and  _609
REMARK  239  A    between atoms: _608  and  _611
REMARK  240  A    between atoms: _611  and  _612
REMARK  241  A    between atoms: _615  and  _617
REMARK  242  A    between atoms: _617  and  _618
REMARK  243  A    between atoms: _617  and  _620
REMARK  244  A    between atoms: _620  and  _621
REMARK  245  A    between atoms: _621  and  _622
REMARK  246  A    between atoms: _627  and  _629
REMARK  247  A    between atoms: _629  and  _630
REMARK  248  A    between atoms: _633  and  _635
REMARK  249  A    between atoms: _635  and  _636
REMARK  250  A    between atoms: _638  and  _640
REMARK  251  A    between atoms: _640  and  _641
REMARK  252  A    between atoms: _640  and  _643
REMARK  253  A    between atoms: _643  and  _644
REMARK  254  A    between atoms: _644  and  _645
REMARK  255  A    between atoms: _648  and  _650
REMARK  256  A    between atoms: _650  and  _651
REMARK  257  A    between atoms: _650  and  _653
REMARK  258  A    between atoms: _653  and  _654
REMARK  259  A    between atoms: _657  and  _659
REMARK  260  A    between atoms: _659  and  _660
REMARK  261  A    between atoms: _659  and  _662
REMARK  262  A    between atoms: _662  and  _663
REMARK  263  A    between atoms: _663  and  _664
REMARK  264  A    between atoms: _664  and  _665
REMARK  265  A    between atoms: _674  and  _676
REMARK  266  A    between atoms: _676  and  _677
REMARK  267  A    between atoms: _676  and  _679
REMARK  268  A    between atoms: _679  and  _680
REMARK  269  A    between atoms: _685  and  _686
REMARK  270  A    between atoms: _688  and  _690
REMARK  271  A    between atoms: _690  and  _691
REMARK  272  A    between atoms: _693  and  _695
REMARK  273  A    between atoms: _695  and  _696
REMARK  274  A    between atoms: _695  and  _698
REMARK  275  A    between atoms: _698  and  _699
REMARK  276  A    between atoms: _705  and  _707
REMARK  277  A    between atoms: _707  and  _708
REMARK  278  A    between atoms: _707  and  _710
REMARK  279  A    between atoms: _710  and  _711
REMARK  280  A    between atoms: _714  and  _716
REMARK  281  A    between atoms: _716  and  _717
REMARK  282  A    between atoms: _716  and  _719
REMARK  283  A    between atoms: _719  and  _720
REMARK  284  A    between atoms: _720  and  _721
REMARK  285  A    between atoms: _726  and  _728
REMARK  286  A    between atoms: _728  and  _729
REMARK  287  A    between atoms: _728  and  _731
REMARK  288  A    between atoms: _731  and  _732
REMARK  289  A    between atoms: _732  and  _733
REMARK  290  A    between atoms: _733  and  _734
REMARK  291  A    between atoms: _734  and  _735
REMARK                            x       y       z     vdW  Elec       q    Type
REMARK                         _______ _______ _______ _____ _____    ______ ____
ROOT
ATOM      1  CA  LYS A   1      26.123 -10.922 207.967  0.00  0.00    +0.145 C 
ENDROOT
BRANCH   1   2
ATOM      2  C   LYS A   1      27.358 -11.363 208.768  0.00  0.00    +0.238 C 
ATOM      3  O   LYS A   1      27.221 -11.931 209.845  0.00  0.00    -0.274 OA
ATOM      4  N   ASP A   2      28.563 -11.112 208.265  0.00  0.00    -0.298 N 
ATOM      5  H   ASP A   2      28.662 -10.589 207.372  0.00  0.00    +0.150 HD
BRANCH   4   6
ATOM      6  CA  ASP A   2      29.746 -11.580 208.982  0.00  0.00    +0.148 C 
BRANCH   6   7
ATOM      7  C   ASP A   2      30.858 -10.528 209.104  0.00  0.00    +0.227 C 
ATOM      8  O   ASP A   2      31.945 -10.828 209.584  0.00  0.00    -0.286 OA
ENDBRANCH   6   7
BRANCH   6   9
ATOM      9  CB  ASP A   2      30.292 -12.849 208.313  0.00  0.00    +0.142 C 
BRANCH   9  10
ATOM     10  CG  ASP A   2      30.845 -12.597 206.907  0.00  0.00    +0.367 C 
ATOM     11  OD2 ASP A   2      30.689 -11.483 206.358  0.00  0.00    -0.246 OA
ATOM     12  OD1 ASP A   2      31.426 -13.539 206.337  0.00  0.00    -0.246 OA
ENDBRANCH   9  10
ENDBRANCH   6   9
ENDBRANCH   4   6
ENDBRANCH   1   2
BRANCH   1  13
ATOM     13  N   LYS A   1      26.207  -9.553 207.458  0.00  0.00    -0.238 NA
ATOM     14  H   LYS A   1      26.470  -9.395 206.464  0.00  0.00    +0.142 HD
ENDBRANCH   1  13
BRANCH   1  15
ATOM     15  CB  LYS A   1      25.882 -11.899 206.814  0.00  0.00    +0.026 C 
BRANCH  15  16
ATOM     16  CG  LYS A   1      25.795 -13.350 207.250  0.00  0.00    -0.000 C 
BRANCH  16  17
ATOM     17  CD  LYS A   1      25.224 -14.227 206.141  0.00  0.00    -0.024 C 
BRANCH  17  18
ATOM     18  CE  LYS A   1      25.268 -15.699 206.534  0.00  0.00    -0.086 C 
BRANCH  18  19
ATOM     19  NZ  LYS A   1      24.665 -16.549 205.479  0.00  0.00    +0.380 N 
ATOM     20  HZ1 LYS A   1      24.708 -17.546 205.772  0.00  0.00    -0.089 HD
ATOM     21  HZ2 LYS A   1      23.673 -16.271 205.336  0.00  0.00    -0.089 HD
ATOM     22  HZ3 LYS A   1      25.192 -16.424 204.591  0.00  0.00    -0.089 HD
ENDBRANCH  18  19
ENDBRANCH  17  18
ENDBRANCH  16  17
ENDBRANCH  15  16
ENDBRANCH   1  15
TORSDOF 11
REMARK  Name = ../refined-set-2016/4qij/4qij_pocket.pdb
REMARK  291 active torsions:
REMARK  status: ('A' for Active; 'I' for Inactive)
REMARK    1  A    between atoms: _1  and  _3
REMARK    2  A    between atoms: _3  and  _4
REMARK    3  A    between atoms: _3  and  _6
REMARK    4  A    between atoms: _6  and  _7
REMARK    5  A    between atoms: _7  and  _8
REMARK    6  A    between atoms: _8  and  _9
REMARK    7  A    between atoms: _19  and  _20
REMARK    8  A    between atoms: _25  and  _27
REMARK    9  A    between atoms: _27  and  _28
REMARK   10  A    between atoms: _27  and  _30
REMARK   11  A    between atoms: _30  and  _31
REMARK   12  A    between atoms: _31  and  _32
REMARK   13  A    between atoms: _35  and  _37
REMARK   14  A    between atoms: _37  and  _38
REMARK   15  A    between atoms: _37  and  _40
REMARK   16  A    between atoms: _43  and  _45
REMARK   17  A    between atoms: _45  and  _46
REMARK   18  A    between atoms: _45  and  _48
REMARK   19  A    between atoms: _48  and  _49
REMARK   20  A    between atoms: _49  and  _50
REMARK   21  A    between atoms: _50  and  _51
REMARK   22  A    between atoms: _60  and  _62
REMARK   23  A    between atoms: _62  and  _63
REMARK   24  A    between atoms: _62  and  _65
REMARK   25  A    between atoms: _65  and  _66
REMARK   26  A    between atoms: _71  and  _73
REMARK   27  A    between atoms: _73  and  _74
REMARK   28  A    between atoms: _77  and  _79
REMARK   29  A    between atoms: _79  and  _80
REMARK   30  A    between atoms: _79  and  _82
REMARK   31  A    between atoms: _82  and  _83
REMARK   32  A    between atoms: _89  and  _91
REMARK   33  A    between atoms: _91  and  _92
REMARK   34  A    between atoms: _91  and  _94
REMARK   35  A    between atoms: _97  and  _99
REMARK   36  A    between atoms: _99  and  _100
REMARK   37  A    between atoms: _99  and  _102
REMARK   38  A    between atoms: _102  and  _103
REMARK   39  A    between atoms: _105  and  _107
REMARK   40  A    between atoms: _107  and  _108
REMARK   41  A    between atoms: _107  and  _110
REMARK   42  A    between atoms: _110  and  _111
REMARK   43  A    between atoms: _111  and  _112
REMARK   44  A    between atoms: _112  and  _113
REMARK   45  A    between atoms: _113  and  _114
REMARK   46  A    between atoms: _118  and  _120
REMARK   47  A    between atoms: _120  and  _121
REMARK   48  A    between atoms: _120  and  _123
REMARK   49  A    between atoms: _123  and  _124
REMARK   50  A    between atoms: _127  and  _129
REMARK   51  A    between atoms: _129  and  _130
REMARK   52  A    between atoms: _132  and  _134
REMARK   53  A    between atoms: _134  and  _135
REMARK   54  A    between atoms: _134  and  _137
REMARK   55  A    between atoms: _137  and  _138
REMARK   56  A    between atoms: _148  and  _150
REMARK   57  A    between atoms: _150  and  _151
REMARK   58  A    between atoms: _154  and  _156
REMARK   59  A    between atoms: _156  and  _157
REMARK   60  A    between atoms: _156  and  _159
REMARK   61  A    between atoms: _159  and  _160
REMARK   62  A    between atoms: _166  and  _168
REMARK   63  A    between atoms: _168  and  _169
REMARK   64  A    between atoms: _168  and  _171
REMARK   65  A    between atoms: _173  and  _175
REMARK   66  A    between atoms: _175  and  _176
REMARK   67  A    between atoms: _175  and  _178
REMARK   68  A    between atoms: _178  and  _179
REMARK   69  A    between atoms: _181  and  _183
REMARK   70  A    between atoms: _183  and  _184
REMARK   71  A    between atoms: _186  and  _188
REMARK   72  A    between atoms: _188  and  _189
REMARK   73  A    between atoms: _191  and  _193
REMARK   74  A    between atoms: _193  and  _194
REMARK   75  A    between atoms: _193  and  _196
REMARK   76  A    between atoms: _196  and  _197
REMARK   77  A    between atoms: _200  and  _202
REMARK   78  A    between atoms: _202  and  _203
REMARK   79  A    between atoms: _202  and  _205
REMARK   80  A    between atoms: _205  and  _206
REMARK   81  A    between atoms: _206  and  _207
REMARK   82  A    between atoms: _212  and  _214
REMARK   83  A    between atoms: _214  and  _215
REMARK   84  A    between atoms: _214  and  _217
REMARK   85  A    between atoms: _217  and  _218
REMARK   86  A    between atoms: _218  and  _219
REMARK   87  A    between atoms: _219  and  _220
REMARK   88  A    between atoms: _229  and  _231
REMARK   89  A    between atoms: _231  and  _232
REMARK   90  A    between atoms: _231  and  _234
REMARK   91  A    between atoms: _234  and  _235
REMARK   92  A    between atoms: _238  and  _240
REMARK   93  A    between atoms: _240  and  _241
REMARK   94  A    between atoms: _240  and  _243
REMARK   95  A    between atoms: _243  and  _244
REMARK   96  A    between atoms: _244  and  _245
REMARK   97  A    between atoms: _245  and  _246
REMARK   98  A    between atoms: _255  and  _257
REMARK   99  A    between atoms: _257  and  _258
REMARK  100  A    between atoms: _260  and  _262
REMARK  101  A    between atoms: _262  and  _263
REMARK  102  A    between atoms: _262  and  _265
REMARK  103  A    between atoms: _265  and  _266
REMARK  104  A    between atoms: _271  and  _272
REMARK  105  A    between atoms: _274  and  _276
REMARK  106  A    between atoms: _276  and  _277
REMARK  107  A    between atoms: _276  and  _279
REMARK  108  A    between atoms: _279  and  _280
REMARK  109  A    between atoms: _283  and  _285
REMARK  110  A    between atoms: _285  and  _286
REMARK  111  A    between atoms: _285  and  _288
REMARK  112  A    between atoms: _288  and  _289
REMARK  113  A    between atoms: _289  and  _290
REMARK  114  A    between atoms: _290  and  _291
REMARK  115  A    between atoms: _300  and  _302
REMARK  116  A    between atoms: _302  and  _303
REMARK  117  A    between atoms: _302  and  _305
REMARK  118  A    between atoms: _305  and  _306
REMARK  119  A    between atoms: _309  and  _311
REMARK  120  A    between atoms: _311  and  _312
REMARK  121  A    between atoms: _311  and  _314
REMARK  122  A    between atoms: _314  and  _315
REMARK  123  A    between atoms: _320  and  _322
REMARK  124  A    between atoms: _322  and  _323
REMARK  125  A    between atoms: _322  and  _325
REMARK  126  A    between atoms: _325  and  _326
REMARK  127  A    between atoms: _329  and  _331
REMARK  128  A    between atoms: _331  and  _332
REMARK  129  A    between atoms: _331  and  _334
REMARK  130  A    between atoms: _334  and  _335
REMARK  131  A    between atoms: _338  and  _340
REMARK  132  A    between atoms: _340  and  _341
REMARK  133  A    between atoms: _340  and  _343
REMARK  134  A    between atoms: _343  and  _344
REMARK  135  A    between atoms: _344  and  _345
REMARK  136  A    between atoms: _348  and  _350
REMARK  137  A    between atoms: _350  and  _351
REMARK  138  A    between atoms: _350  and  _353
REMARK  139  A    between atoms: _353  and  _354
REMARK  140  A    between atoms: _354  and  _355
REMARK  141  A    between atoms: _360  and  _362
REMARK  142  A    between atoms: _362  and  _363
REMARK  143  A    between atoms: _365  and  _367
REMARK  144  A    between atoms: _367  and  _368
REMARK  145  A    between atoms: _367  and  _370
REMARK  146  A    between atoms: _370  and  _371
REMARK  147  A    between atoms: _381  and  _383
REMARK  148  A    between atoms: _383  and  _384
REMARK  149  A    between atoms: _387  and  _389
REMARK  150  A    between atoms: _389  and  _390
REMARK  151  A    between atoms: _393  and  _395
REMARK  152  A    between atoms: _395  and  _396
REMARK  153  A    between atoms: _398  and  _400
REMARK  154  A    between atoms: _400  and  _401
REMARK  155  A    between atoms: _403  and  _405
REMARK  156  A    between atoms: _405  and  _406
REMARK  157  A    between atoms: _408  and  _410
REMARK  158  A    between atoms: _410  and  _411
REMARK  159  A    between atoms: _410  and  _413
REMARK  160  A    between atoms: _413  and  _414
REMARK  161  A    between atoms: _419  and  _421
REMARK  162  A    between atoms: _421  and  _422
REMARK  163  A    between atoms: _421  and  _424
REMARK  164  A    between atoms: _424  and  _425
REMARK  165  A    between atoms: _427  and  _429
REMARK  166  A    between atoms: _429  and  _430
REMARK  167  A    between atoms: _429  and  _432
REMARK  168  A    between atoms: _432  and  _433
REMARK  169  A    between atoms: _436  and  _438
REMARK  170  A    between atoms: _438  and  _439
REMARK  171  A    between atoms: _438  and  _441
REMARK  172  A    between atoms: _441  and  _442
REMARK  173  A    between atoms: _442  and  _443
REMARK  174  A    between atoms: _443  and  _444
REMARK  175  A    between atoms: _453  and  _455
REMARK  176  A    between atoms: _455  and  _456
REMARK  177  A    between atoms: _455  and  _458
REMARK  178  A    between atoms: _458  and  _459
REMARK  179  A    between atoms: _465  and  _467
REMARK  180  A    between atoms: _467  and  _468
REMARK  181  A    between atoms: _467  and  _470
REMARK  182  A    between atoms: _470  and  _471
REMARK  183  A    between atoms: _471  and  _472
REMARK  184  A    between atoms: _472  and  _473
REMARK  185  A    between atoms: _473  and  _474
REMARK  186  A    between atoms: _478  and  _480
REMARK  187  A    between atoms: _480  and  _481
REMARK  188  A    between atoms: _480  and  _483
REMARK  189  A    between atoms: _483  and  _484
REMARK  190  A    between atoms: _484  and  _485
REMARK  191  A    between atoms: _490  and  _492
REMARK  192  A    between atoms: _492  and  _493
REMARK  193  A    between atoms: _492  and  _495
REMARK  194  A    between atoms: _495  and  _496
REMARK  195  A    between atoms: _499  and  _501
REMARK  196  A    between atoms: _501  and  _502
REMARK  197  A    between atoms: _501  and  _504
REMARK  198  A    between atoms: _504  and  _505
REMARK  199  A    between atoms: _508  and  _510
REMARK  200  A    between atoms: _510  and  _511
REMARK  201  A    between atoms: _514  and  _516
REMARK  202  A    between atoms: _516  and  _517
REMARK  203  A    between atoms: _516  and  _519
REMARK  204  A    between atoms: _519  and  _520
REMARK  205  A    between atoms: _523  and  _525
REMARK  206  A    between atoms: _525  and  _526
REMARK  207  A    between atoms: _525  and  _528
REMARK  208  A    between atoms: _531  and  _533
REMARK  209  A    between atoms: _533  and  _534
REMARK  210  A    between atoms: _536  and  _538
REMARK  211  A    between atoms: _538  and  _539
REMARK  212  A    between atoms: _538  and  _541
REMARK  213  A    between atoms: _541  and  _542
REMARK  214  A    between atoms: _544  and  _546
REMARK  215  A    between atoms: _546  and  _547
REMARK  216  A    between atoms: _546  and  _549
REMARK  217  A    between atoms: _549  and  _550
REMARK  218  A    between atoms: _556  and  _558
REMARK  219  A    between atoms: _558  and  _559
REMARK  220  A    between atoms: _558  and  _561
REMARK  221  A    between atoms: _561  and  _562
REMARK  222  A    between atoms: _565  and  _567
REMARK  223  A    between atoms: _567  and  _568
REMARK  224  A    between atoms: _570  and  _572
REMARK  225  A    between atoms: _572  and  _573
REMARK  226  A    between atoms: _575  and  _577
REMARK  227  A    between atoms: _577  and  _578
REMARK  228  A    between atoms: _577  and  _580
REMARK  229  A    between atoms: _580  and  _581
REMARK  230  A    between atoms: _586  and  _587
REMARK  231  A    between atoms: _589  and  _591
REMARK  232  A    between atoms: _591  and  _592
REMARK  233  A    between atoms: _594  and  _596
REMARK  234  A    between atoms: _596  and  _597
REMARK  235  A    between atoms: _596  and  _599
REMARK  236  A    between atoms: _599  and  _600
REMARK  237  A    between atoms: _606  and  _608
REMARK  238  A    between atoms: _608  and  _609
REMARK  239  A    between atoms: _608  and  _611
REMARK  240  A    between atoms: _611  and  _612
REMARK  241  A    between atoms: _615  and  _617
REMARK  242  A    between atoms: _617  and  _618
REMARK  243  A    between atoms: _617  and  _620
REMARK  244  A    between atoms: _620  and  _621
REMARK  245  A    between atoms: _621  and  _622
REMARK  246  A    between atoms: _627  and  _629
REMARK  247  A    between atoms: _629  and  _630
REMARK  248  A    between atoms: _633  and  _635
REMARK  249  A    between atoms: _635  and  _636
REMARK  250  A    between atoms: _638  and  _640
REMARK  251  A    between atoms: _640  and  _641
REMARK  252  A    between atoms: _640  and  _643
REMARK  253  A    between atoms: _643  and  _644
REMARK  254  A    between atoms: _644  and  _645
REMARK  255  A    between atoms: _648  and  _650
REMARK  256  A    between atoms: _650  and  _651
REMARK  257  A    between atoms: _650  and  _653
REMARK  258  A    between atoms: _653  and  _654
REMARK  259  A    between atoms: _657  and  _659
REMARK  260  A    between atoms: _659  and  _660
REMARK  261  A    between atoms: _659  and  _662
REMARK  262  A    between atoms: _662  and  _663
REMARK  263  A    between atoms: _663  and  _664
REMARK  264  A    between atoms: _664  and  _665
REMARK  265  A    between atoms: _674  and  _676
REMARK  266  A    between atoms: _676  and  _677
REMARK  267  A    between atoms: _676  and  _679
REMARK  268  A    between atoms: _679  and  _680
REMARK  269  A    between atoms: _685  and  _686
REMARK  270  A    between atoms: _688  and  _690
REMARK  271  A    between atoms: _690  and  _691
REMARK  272  A    between atoms: _693  and  _695
REMARK  273  A    between atoms: _695  and  _696
REMARK  274  A    between atoms: _695  and  _698
REMARK  275  A    between atoms: _698  and  _699
REMARK  276  A    between atoms: _705  and  _707
REMARK  277  A    between atoms: _707  and  _708
REMARK  278  A    between atoms: _707  and  _710
REMARK  279  A    between atoms: _710  and  _711
REMARK  280  A    between atoms: _714  and  _716
REMARK  281  A    between atoms: _716  and  _717
REMARK  282  A    between atoms: _716  and  _719
REMARK  283  A    between atoms: _719  and  _720
REMARK  284  A    between atoms: _720  and  _721
REMARK  285  A    between atoms: _726  and  _728
REMARK  286  A    between atoms: _728  and  _729
REMARK  287  A    between atoms: _728  and  _731
REMARK  288  A    between atoms: _731  and  _732
REMARK  289  A    between atoms: _732  and  _733
REMARK  290  A    between atoms: _733  and  _734
REMARK  291  A    between atoms: _734  and  _735
REMARK                            x       y       z     vdW  Elec       q    Type
REMARK                         _______ _______ _______ _____ _____    ______ ____
ROOT
ATOM      1  C   GLY A   8      28.641 -13.230 189.681  0.00  0.00    +0.243 C 
ATOM      2  O   GLY A   8      29.218 -14.130 190.300  0.00  0.00    -0.273 OA
ATOM      3  N   ASP A   9      27.390 -12.865 189.935  0.00  0.00    -0.296 N 
ATOM      4  H   ASP A   9      26.984 -12.067 189.405  0.00  0.00    +0.150 HD
ENDROOT
BRANCH   3   5
ATOM      5  CA  ASP A   9      26.561 -13.541 190.931  0.00  0.00    +0.160 C 
BRANCH   5   6
ATOM      6  C   ASP A   9      26.235 -14.967 190.483  0.00  0.00    +0.241 C 
ATOM      7  N   GLN A  10      26.888 -15.950 191.095  0.00  0.00    -0.297 N 
ATOM      8  H   GLN A  10      27.500 -15.728 191.906  0.00  0.00    +0.150 HD
ATOM      9  O   ASP A   9      25.398 -15.172 189.603  0.00  0.00    -0.273 OA
BRANCH   7  10
ATOM     10  CA  GLN A  10      26.762 -17.334 190.651  0.00  0.00    +0.149 C 
BRANCH  10  11
ATOM     11  C   GLN A  10      25.343 -17.881 190.807  0.00  0.00    +0.241 C 
ATOM     12  N   ARG A  11      24.576 -17.290 191.713  0.00  0.00    -0.297 N 
ATOM     13  H   ARG A  11      24.959 -16.495 192.263  0.00  0.00    +0.150 HD
ATOM     14  O   GLN A  10      24.945 -18.796 190.096  0.00  0.00    -0.273 OA
BRANCH  12  15
ATOM     15  CA  ARG A  11      23.207 -17.731 191.954  0.00  0.00    +0.149 C 
BRANCH  15  16
ATOM     16  C   ARG A  11      22.313 -17.610 190.728  0.00  0.00    +0.241 C 
ATOM     17  O   ARG A  11      21.397 -18.407 190.552  0.00  0.00    -0.273 OA
ATOM     18  N   ILE A  12      22.564 -16.621 189.877  0.00  0.00    -0.297 N 
ATOM     19  H   ILE A  12      23.381 -15.995 190.027  0.00  0.00    +0.150 HD
BRANCH  18  20
ATOM     20  CA  ILE A  12      21.684 -16.420 188.730  0.00  0.00    +0.149 C 
BRANCH  20  21
ATOM     21  C   ILE A  12      22.438 -16.660 187.417  0.00  0.00    +0.241 C 
ATOM     22  N   ARG A  13      23.562 -17.353 187.527  0.00  0.00    -0.298 N 
ATOM     23  H   ARG A  13      23.920 -17.587 188.475  0.00  0.00    +0.150 HD
ATOM     24  O   ILE A  12      22.010 -16.249 186.336  0.00  0.00    -0.273 OA
BRANCH  22  25
ATOM     25  CA  ARG A  13      24.312 -17.797 186.358  0.00  0.00    +0.137 C 
BRANCH  25  26
ATOM     26  C   ARG A  13      23.673 -19.040 185.757  0.00  0.00    +0.227 C 
ATOM     27  O   ARG A  13      23.413 -20.013 186.454  0.00  0.00    -0.286 OA
ENDBRANCH  25  26
BRANCH  25  28
ATOM     28  CB  ARG A  13      25.776 -18.046 186.737  0.00  0.00    +0.031 C 
BRANCH  28  29
ATOM     29  CG  ARG A  13      26.708 -18.393 185.589  0.00  0.00    +0.045 C 
BRANCH  29  30
ATOM     30  CD  ARG A  13      27.993 -18.980 186.174  0.00  0.00    +0.174 C 
BRANCH  30  31
ATOM     31  NE  ARG A  13      28.679 -19.919 185.301  0.00  0.00    -0.265 N 
ATOM     32  CZ  ARG A  13      29.741 -20.625 185.671  0.00  0.00    +0.342 C 
ATOM     33  NH2 ARG A  13      30.255 -20.474 186.886  0.00  0.00    -0.292 N 
ATOM     34 HH21 ARG A  13      29.826 -19.801 187.552  0.00  0.00    +0.255 HD
ATOM     35 HH22 ARG A  13      31.087 -21.029 187.171  0.00  0.00    +0.255 HD
ATOM     36  NH1 ARG A  13      30.297 -21.470 184.823  0.00  0.00    -0.292 N 
ATOM     37 HH11 ARG A  13      31.129 -22.024 185.111  0.00  0.00    +0.255 HD
ATOM     38 HH12 ARG A  13      29.903 -21.582 183.867  0.00  0.00    +0.255 HD
ATOM     39  HE  ARG A  13      28.318 -20.045 184.334  0.00  0.00    +0.259 HD
ENDBRANCH  30  31
ENDBRANCH  29  30
ENDBRANCH  28  29
ENDBRANCH  25  28
ENDBRANCH  22  25
ENDBRANCH  20  21
BRANCH  20  40
ATOM     40  CB  ILE A  12      21.039 -15.005 188.758  0.00  0.00    +0.027 C 
ATOM     41  CG2 ILE A  12      19.924 -14.983 189.798  0.00  0.00    +0.002 C 
BRANCH  40  42
ATOM     42  CG1 ILE A  12      22.068 -13.911 189.105  0.00  0.00    +0.002 C 
ATOM     43  CD1 ILE A  12      22.987 -13.497 187.948  0.00  0.00    +0.000 C 
ENDBRANCH  40  42
ENDBRANCH  20  40
ENDBRANCH  18  20
ENDBRANCH  15  16
BRANCH  15  44
ATOM     44  CB  ARG A  11      22.588 -16.932 193.107  0.00  0.00    +0.033 C 
BRANCH  44  45
ATOM     45  CG  ARG A  11      23.253 -17.201 194.442  0.00  0.00    +0.045 C 
BRANCH  45  46
ATOM     46  CD  ARG A  11      22.682 -16.287 195.522  0.00  0.00    +0.174 C 
BRANCH  46  47
ATOM     47  NE  ARG A  11      22.877 -14.872 195.208  0.00  0.00    -0.265 N 
ATOM     48  CZ  ARG A  11      22.446 -13.881 195.987  0.00  0.00    +0.342 C 
ATOM     49  NH2 ARG A  11      21.801 -14.162 197.122  0.00  0.00    -0.292 N 
ATOM     50 HH21 ARG A  11      21.463 -13.391 197.733  0.00  0.00    +0.255 HD
ATOM     51 HH22 ARG A  11      21.637 -15.152 197.395  0.00  0.00    +0.255 HD
ATOM     52  NH1 ARG A  11      22.657 -12.615 195.646  0.00  0.00    -0.292 N 
ATOM     53 HH11 ARG A  11      22.317 -11.847 196.260  0.00  0.00    +0.255 HD
ATOM     54 HH12 ARG A  11      23.162 -12.391 194.765  0.00  0.00    +0.255 HD
ATOM     55  HE  ARG A  11      23.378 -14.627 194.331  0.00  0.00    +0.259 HD
ENDBRANCH  46  47
ENDBRANCH  45  46
ENDBRANCH  44  45
ENDBRANCH  15  44
ENDBRANCH  12  15
ENDBRANCH  10  11
BRANCH  10  56
ATOM     56  CB  GLN A  10      27.761 -18.219 191.400  0.00  0.00    +0.039 C 
BRANCH  56  57
ATOM     57  CG  GLN A  10      29.208 -17.875 191.087  0.00  0.00    +0.087 C 
BRANCH  57  58
ATOM     58  CD  GLN A  10      29.480 -17.920 189.592  0.00  0.00    +0.219 C 
ATOM     59  OE1 GLN A  10      29.505 -18.993 189.005  0.00  0.00    -0.275 OA
ATOM     60  NE2 GLN A  10      29.688 -16.756 188.974  0.00  0.00    -0.329 N 
ATOM     61 HE21 GLN A  10      29.657 -15.868 189.514  0.00  0.00    +0.145 HD
ATOM     62 HE22 GLN A  10      29.881 -16.737 187.952  0.00  0.00    +0.145 HD
ENDBRANCH  57  58
ENDBRANCH  56  57
ENDBRANCH  10  56
ENDBRANCH   7  10
ENDBRANCH   5   6
BRANCH   5  63
ATOM     63  CB  ASP A   9      25.272 -12.752 191.172  0.00  0.00    +0.143 C 
BRANCH  63  64
ATOM     64  CG  ASP A   9      24.514 -13.231 192.391  0.00  0.00    +0.367 C 
ATOM     65  OD2 ASP A   9      23.776 -12.420 192.977  0.00  0.00    -0.246 OA
ATOM     66  OD1 ASP A   9      24.640 -14.416 192.757  0.00  0.00    -0.246 OA
ENDBRANCH  63  64
ENDBRANCH   5  63
ENDBRANCH   3   5
BRANCH   1  67
ATOM     67  CA  GLY A   8      29.347 -12.452 188.581  0.00  0.00    +0.176 C 
BRANCH  67  70
ATOM     68  C   GLY A   7      31.004 -11.328 189.971  0.00  0.00    +0.243 C 
ATOM     69  O   GLY A   7      30.146 -10.885 190.737  0.00  0.00    -0.273 OA
ATOM     70  N   GLY A   8      30.716 -12.114 188.935  0.00  0.00    -0.295 N 
ATOM     71  H   GLY A   8      31.494 -12.498 188.362  0.00  0.00    +0.150 HD
BRANCH  68  72
ATOM     72  CA  GLY A   7      32.473 -10.995 190.180  0.00  0.00    +0.176 C 
BRANCH  72  75
ATOM     73  C   SER A   6      33.004 -11.484 192.492  0.00  0.00    +0.243 C 
ATOM     74  O   SER A   6      32.846 -12.688 192.305  0.00  0.00    -0.273 OA
ATOM     75  N   GLY A   7      32.787 -10.584 191.537  0.00  0.00    -0.295 N 
ATOM     76  H   GLY A   7      32.843  -9.571 191.765  0.00  0.00    +0.150 HD
BRANCH  73  77
ATOM     77  CA  SER A   6      33.419 -10.956 193.874  0.00  0.00    +0.178 C 
BRANCH  77  79
ATOM     78  C   CYS A   5      34.066  -8.612 193.917  0.00  0.00    +0.242 C 
ATOM     79  N   SER A   6      33.111  -9.533 194.034  0.00  0.00    -0.295 N 
ATOM     80  H   SER A   6      32.135  -9.238 194.241  0.00  0.00    +0.150 HD
ATOM     81  O   CYS A   5      35.239  -8.901 193.671  0.00  0.00    -0.273 OA
BRANCH  78  82
ATOM     82  CA  CYS A   5      33.660  -7.154 194.145  0.00  0.00    +0.160 C 
BRANCH  82  85
ATOM     83  C   PHE A   4      34.359  -5.323 195.617  0.00  0.00    +0.241 C 
ATOM     84  O   PHE A   4      33.311  -4.691 195.439  0.00  0.00    -0.273 OA
ATOM     85  N   CYS A   5      34.589  -6.519 195.082  0.00  0.00    -0.296 N 
ATOM     86  H   CYS A   5      35.462  -7.022 195.339  0.00  0.00    +0.150 HD
BRANCH  83  87
ATOM     87  CA  PHE A   4      35.473  -4.771 196.513  0.00  0.00    +0.153 C 
BRANCH  87  90
ATOM     88  C   ALA A   3      34.732  -5.703 198.609  0.00  0.00    +0.241 C 
ATOM     89  O   ALA A   3      33.937  -4.773 198.788  0.00  0.00    -0.273 OA
ATOM     90  N   PHE A   4      35.632  -5.692 197.630  0.00  0.00    -0.297 N 
ATOM     91  H   PHE A   4      36.446  -6.338 197.662  0.00  0.00    +0.150 HD
BRANCH  88  92
ATOM     92  CA  ALA A   3      34.725  -6.938 199.519  0.00  0.00    +0.149 C 
ATOM     93  CB  ALA A   3      33.658  -7.918 199.059  0.00  0.00    +0.031 C 
BRANCH  92  96
ATOM     94  C   TRP A   2      35.171  -7.293 201.867  0.00  0.00    +0.241 C 
ATOM     95  O   TRP A   2      35.950  -8.221 201.600  0.00  0.00    -0.273 OA
ATOM     96  N   ALA A   3      34.520  -6.616 200.930  0.00  0.00    -0.297 N 
ATOM     97  H   ALA A   3      33.863  -5.856 201.200  0.00  0.00    +0.150 HD
BRANCH  94  98
ATOM     98  CA  TRP A   2      34.928  -6.840 203.309  0.00  0.00    +0.153 C 
BRANCH  98 101
ATOM     99  C   GLY A   1      33.546  -8.310 204.722  0.00  0.00    +0.240 C 
ATOM    100  O   GLY A   1      32.494  -7.791 204.352  0.00  0.00    -0.274 OA
ATOM    101  N   TRP A   2      34.741  -7.932 204.272  0.00  0.00    -0.297 N 
ATOM    102  H   TRP A   2      35.582  -8.435 204.620  0.00  0.00    +0.150 HD
BRANCH  99 103
ATOM    103  CA  GLY A   1      33.531  -9.445 205.743  0.00  0.00    +0.169 C 
BRANCH 103 104
ATOM    104  N   GLY A   1      32.530  -9.260 206.785  0.00  0.00    -0.236 NA
ATOM    105  H   GLY A   1      31.673  -9.850 206.779  0.00  0.00    +0.142 HD
ENDBRANCH 103 104
ENDBRANCH  99 103
ENDBRANCH  98 101
BRANCH  98 106
ATOM    106  CB  TRP A   2      36.092  -5.939 203.739  0.00  0.00    +0.057 C 
BRANCH 106 107
ATOM    107  CG  TRP A   2      35.732  -4.942 204.776  0.00  0.00    -0.002 A 
ATOM    108  CD1 TRP A   2      35.995  -5.016 206.119  0.00  0.00    +0.068 A 
ATOM    109  NE1 TRP A   2      35.507  -3.894 206.756  0.00  0.00    -0.352 N 
ATOM    110  HE1 TRP A   2      35.581  -3.698 207.775  0.00  0.00    +0.166 HD
ATOM    111  CE2 TRP A   2      34.909  -3.078 205.831  0.00  0.00    +0.056 A 
ATOM    112  CZ2 TRP A   2      34.268  -1.838 205.998  0.00  0.00    +0.017 A 
ATOM    113  CH2 TRP A   2      33.760  -1.229 204.879  0.00  0.00    +0.001 A 
ATOM    114  CZ3 TRP A   2      33.872  -1.823 203.610  0.00  0.00    +0.000 A 
ATOM    115  CE3 TRP A   2      34.504  -3.066 203.443  0.00  0.00    +0.001 A 
ATOM    116  CD2 TRP A   2      35.035  -3.705 204.569  0.00  0.00    +0.013 A 
ENDBRANCH 106 107
ENDBRANCH  98 106
ENDBRANCH  94  98
ENDBRANCH  92  96
ENDBRANCH  88  92
ENDBRANCH  87  90
BRANCH  87 117
ATOM    117  CB  PHE A   4      36.777  -4.604 195.720  0.00  0.00    +0.055 C 
BRANCH 117 118
ATOM    118  CG  PHE A   4      36.583  -3.990 194.354  0.00  0.00    -0.020 A 
ATOM    119  CD2 PHE A   4      35.942  -2.764 194.213  0.00  0.00    -0.004 A 
ATOM    120  CE2 PHE A   4      35.757  -2.189 192.955  0.00  0.00    -0.000 A 
ATOM    121  CZ  PHE A   4      36.220  -2.850 191.813  0.00  0.00    -0.000 A 
ATOM    122  CE1 PHE A   4      36.869  -4.078 191.943  0.00  0.00    -0.000 A 
ATOM    123  CD1 PHE A   4      37.041  -4.638 193.213  0.00  0.00    -0.004 A 
ENDBRANCH 117 118
ENDBRANCH  87 117
ENDBRANCH  83  87
ENDBRANCH  82  85
BRANCH  82 124
ATOM    124  CB  CYS A   5      33.635  -6.393 192.807  0.00  0.00    +0.098 C 
ATOM    125  SG  CYS A   5      32.611  -7.155 191.536  0.00  0.00    -0.080 S 
ENDBRANCH  82 124
ENDBRANCH  78  82
ENDBRANCH  77  79
BRANCH  77 126
ATOM    126  CB  SER A   6      32.738 -11.785 194.977  0.00  0.00    +0.166 C 
BRANCH 126 127
ATOM    127  OG  SER A   6      31.330 -11.645 194.901  0.00  0.00    -0.380 OA
ATOM    128  H   SER A   6      30.907 -12.183 195.616  0.00  0.00    +0.211 HD
ENDBRANCH 126 127
ENDBRANCH  77 126
ENDBRANCH  73  77
ENDBRANCH  72  75
ENDBRANCH  68  72
ENDBRANCH  67  70
ENDBRANCH   1  67
TORSDOF 48
REMARK  Name = ../refined-set-2016/4qij/4qij_pocket.pdb
REMARK  291 active torsions:
REMARK  status: ('A' for Active; 'I' for Inactive)
REMARK    1  A    between atoms: _1  and  _3
REMARK    2  A    between atoms: _3  and  _4
REMARK    3  A    between atoms: _3  and  _6
REMARK    4  A    between atoms: _6  and  _7
REMARK    5  A    between atoms: _7  and  _8
REMARK    6  A    between atoms: _8  and  _9
REMARK    7  A    between atoms: _19  and  _20
REMARK    8  A    between atoms: _25  and  _27
REMARK    9  A    between atoms: _27  and  _28
REMARK   10  A    between atoms: _27  and  _30
REMARK   11  A    between atoms: _30  and  _31
REMARK   12  A    between atoms: _31  and  _32
REMARK   13  A    between atoms: _35  and  _37
REMARK   14  A    between atoms: _37  and  _38
REMARK   15  A    between atoms: _37  and  _40
REMARK   16  A    between atoms: _43  and  _45
REMARK   17  A    between atoms: _45  and  _46
REMARK   18  A    between atoms: _45  and  _48
REMARK   19  A    between atoms: _48  and  _49
REMARK   20  A    between atoms: _49  and  _50
REMARK   21  A    between atoms: _50  and  _51
REMARK   22  A    between atoms: _60  and  _62
REMARK   23  A    between atoms: _62  and  _63
REMARK   24  A    between atoms: _62  and  _65
REMARK   25  A    between atoms: _65  and  _66
REMARK   26  A    between atoms: _71  and  _73
REMARK   27  A    between atoms: _73  and  _74
REMARK   28  A    between atoms: _77  and  _79
REMARK   29  A    between atoms: _79  and  _80
REMARK   30  A    between atoms: _79  and  _82
REMARK   31  A    between atoms: _82  and  _83
REMARK   32  A    between atoms: _89  and  _91
REMARK   33  A    between atoms: _91  and  _92
REMARK   34  A    between atoms: _91  and  _94
REMARK   35  A    between atoms: _97  and  _99
REMARK   36  A    between atoms: _99  and  _100
REMARK   37  A    between atoms: _99  and  _102
REMARK   38  A    between atoms: _102  and  _103
REMARK   39  A    between atoms: _105  and  _107
REMARK   40  A    between atoms: _107  and  _108
REMARK   41  A    between atoms: _107  and  _110
REMARK   42  A    between atoms: _110  and  _111
REMARK   43  A    between atoms: _111  and  _112
REMARK   44  A    between atoms: _112  and  _113
REMARK   45  A    between atoms: _113  and  _114
REMARK   46  A    between atoms: _118  and  _120
REMARK   47  A    between atoms: _120  and  _121
REMARK   48  A    between atoms: _120  and  _123
REMARK   49  A    between atoms: _123  and  _124
REMARK   50  A    between atoms: _127  and  _129
REMARK   51  A    between atoms: _129  and  _130
REMARK   52  A    between atoms: _132  and  _134
REMARK   53  A    between atoms: _134  and  _135
REMARK   54  A    between atoms: _134  and  _137
REMARK   55  A    between atoms: _137  and  _138
REMARK   56  A    between atoms: _148  and  _150
REMARK   57  A    between atoms: _150  and  _151
REMARK   58  A    between atoms: _154  and  _156
REMARK   59  A    between atoms: _156  and  _157
REMARK   60  A    between atoms: _156  and  _159
REMARK   61  A    between atoms: _159  and  _160
REMARK   62  A    between atoms: _166  and  _168
REMARK   63  A    between atoms: _168  and  _169
REMARK   64  A    between atoms: _168  and  _171
REMARK   65  A    between atoms: _173  and  _175
REMARK   66  A    between atoms: _175  and  _176
REMARK   67  A    between atoms: _175  and  _178
REMARK   68  A    between atoms: _178  and  _179
REMARK   69  A    between atoms: _181  and  _183
REMARK   70  A    between atoms: _183  and  _184
REMARK   71  A    between atoms: _186  and  _188
REMARK   72  A    between atoms: _188  and  _189
REMARK   73  A    between atoms: _191  and  _193
REMARK   74  A    between atoms: _193  and  _194
REMARK   75  A    between atoms: _193  and  _196
REMARK   76  A    between atoms: _196  and  _197
REMARK   77  A    between atoms: _200  and  _202
REMARK   78  A    between atoms: _202  and  _203
REMARK   79  A    between atoms: _202  and  _205
REMARK   80  A    between atoms: _205  and  _206
REMARK   81  A    between atoms: _206  and  _207
REMARK   82  A    between atoms: _212  and  _214
REMARK   83  A    between atoms: _214  and  _215
REMARK   84  A    between atoms: _214  and  _217
REMARK   85  A    between atoms: _217  and  _218
REMARK   86  A    between atoms: _218  and  _219
REMARK   87  A    between atoms: _219  and  _220
REMARK   88  A    between atoms: _229  and  _231
REMARK   89  A    between atoms: _231  and  _232
REMARK   90  A    between atoms: _231  and  _234
REMARK   91  A    between atoms: _234  and  _235
REMARK   92  A    between atoms: _238  and  _240
REMARK   93  A    between atoms: _240  and  _241
REMARK   94  A    between atoms: _240  and  _243
REMARK   95  A    between atoms: _243  and  _244
REMARK   96  A    between atoms: _244  and  _245
REMARK   97  A    between atoms: _245  and  _246
REMARK   98  A    between atoms: _255  and  _257
REMARK   99  A    between atoms: _257  and  _258
REMARK  100  A    between atoms: _260  and  _262
REMARK  101  A    between atoms: _262  and  _263
REMARK  102  A    between atoms: _262  and  _265
REMARK  103  A    between atoms: _265  and  _266
REMARK  104  A    between atoms: _271  and  _272
REMARK  105  A    between atoms: _274  and  _276
REMARK  106  A    between atoms: _276  and  _277
REMARK  107  A    between atoms: _276  and  _279
REMARK  108  A    between atoms: _279  and  _280
REMARK  109  A    between atoms: _283  and  _285
REMARK  110  A    between atoms: _285  and  _286
REMARK  111  A    between atoms: _285  and  _288
REMARK  112  A    between atoms: _288  and  _289
REMARK  113  A    between atoms: _289  and  _290
REMARK  114  A    between atoms: _290  and  _291
REMARK  115  A    between atoms: _300  and  _302
REMARK  116  A    between atoms: _302  and  _303
REMARK  117  A    between atoms: _302  and  _305
REMARK  118  A    between atoms: _305  and  _306
REMARK  119  A    between atoms: _309  and  _311
REMARK  120  A    between atoms: _311  and  _312
REMARK  121  A    between atoms: _311  and  _314
REMARK  122  A    between atoms: _314  and  _315
REMARK  123  A    between atoms: _320  and  _322
REMARK  124  A    between atoms: _322  and  _323
REMARK  125  A    between atoms: _322  and  _325
REMARK  126  A    between atoms: _325  and  _326
REMARK  127  A    between atoms: _329  and  _331
REMARK  128  A    between atoms: _331  and  _332
REMARK  129  A    between atoms: _331  and  _334
REMARK  130  A    between atoms: _334  and  _335
REMARK  131  A    between atoms: _338  and  _340
REMARK  132  A    between atoms: _340  and  _341
REMARK  133  A    between atoms: _340  and  _343
REMARK  134  A    between atoms: _343  and  _344
REMARK  135  A    between atoms: _344  and  _345
REMARK  136  A    between atoms: _348  and  _350
REMARK  137  A    between atoms: _350  and  _351
REMARK  138  A    between atoms: _350  and  _353
REMARK  139  A    between atoms: _353  and  _354
REMARK  140  A    between atoms: _354  and  _355
REMARK  141  A    between atoms: _360  and  _362
REMARK  142  A    between atoms: _362  and  _363
REMARK  143  A    between atoms: _365  and  _367
REMARK  144  A    between atoms: _367  and  _368
REMARK  145  A    between atoms: _367  and  _370
REMARK  146  A    between atoms: _370  and  _371
REMARK  147  A    between atoms: _381  and  _383
REMARK  148  A    between atoms: _383  and  _384
REMARK  149  A    between atoms: _387  and  _389
REMARK  150  A    between atoms: _389  and  _390
REMARK  151  A    between atoms: _393  and  _395
REMARK  152  A    between atoms: _395  and  _396
REMARK  153  A    between atoms: _398  and  _400
REMARK  154  A    between atoms: _400  and  _401
REMARK  155  A    between atoms: _403  and  _405
REMARK  156  A    between atoms: _405  and  _406
REMARK  157  A    between atoms: _408  and  _410
REMARK  158  A    between atoms: _410  and  _411
REMARK  159  A    between atoms: _410  and  _413
REMARK  160  A    between atoms: _413  and  _414
REMARK  161  A    between atoms: _419  and  _421
REMARK  162  A    between atoms: _421  and  _422
REMARK  163  A    between atoms: _421  and  _424
REMARK  164  A    between atoms: _424  and  _425
REMARK  165  A    between atoms: _427  and  _429
REMARK  166  A    between atoms: _429  and  _430
REMARK  167  A    between atoms: _429  and  _432
REMARK  168  A    between atoms: _432  and  _433
REMARK  169  A    between atoms: _436  and  _438
REMARK  170  A    between atoms: _438  and  _439
REMARK  171  A    between atoms: _438  and  _441
REMARK  172  A    between atoms: _441  and  _442
REMARK  173  A    between atoms: _442  and  _443
REMARK  174  A    between atoms: _443  and  _444
REMARK  175  A    between atoms: _453  and  _455
REMARK  176  A    between atoms: _455  and  _456
REMARK  177  A    between atoms: _455  and  _458
REMARK  178  A    between atoms: _458  and  _459
REMARK  179  A    between atoms: _465  and  _467
REMARK  180  A    between atoms: _467  and  _468
REMARK  181  A    between atoms: _467  and  _470
REMARK  182  A    between atoms: _470  and  _471
REMARK  183  A    between atoms: _471  and  _472
REMARK  184  A    between atoms: _472  and  _473
REMARK  185  A    between atoms: _473  and  _474
REMARK  186  A    between atoms: _478  and  _480
REMARK  187  A    between atoms: _480  and  _481
REMARK  188  A    between atoms: _480  and  _483
REMARK  189  A    between atoms: _483  and  _484
REMARK  190  A    between atoms: _484  and  _485
REMARK  191  A    between atoms: _490  and  _492
REMARK  192  A    between atoms: _492  and  _493
REMARK  193  A    between atoms: _492  and  _495
REMARK  194  A    between atoms: _495  and  _496
REMARK  195  A    between atoms: _499  and  _501
REMARK  196  A    between atoms: _501  and  _502
REMARK  197  A    between atoms: _501  and  _504
REMARK  198  A    between atoms: _504  and  _505
REMARK  199  A    between atoms: _508  and  _510
REMARK  200  A    between atoms: _510  and  _511
REMARK  201  A    between atoms: _514  and  _516
REMARK  202  A    between atoms: _516  and  _517
REMARK  203  A    between atoms: _516  and  _519
REMARK  204  A    between atoms: _519  and  _520
REMARK  205  A    between atoms: _523  and  _525
REMARK  206  A    between atoms: _525  and  _526
REMARK  207  A    between atoms: _525  and  _528
REMARK  208  A    between atoms: _531  and  _533
REMARK  209  A    between atoms: _533  and  _534
REMARK  210  A    between atoms: _536  and  _538
REMARK  211  A    between atoms: _538  and  _539
REMARK  212  A    between atoms: _538  and  _541
REMARK  213  A    between atoms: _541  and  _542
REMARK  214  A    between atoms: _544  and  _546
REMARK  215  A    between atoms: _546  and  _547
REMARK  216  A    between atoms: _546  and  _549
REMARK  217  A    between atoms: _549  and  _550
REMARK  218  A    between atoms: _556  and  _558
REMARK  219  A    between atoms: _558  and  _559
REMARK  220  A    between atoms: _558  and  _561
REMARK  221  A    between atoms: _561  and  _562
REMARK  222  A    between atoms: _565  and  _567
REMARK  223  A    between atoms: _567  and  _568
REMARK  224  A    between atoms: _570  and  _572
REMARK  225  A    between atoms: _572  and  _573
REMARK  226  A    between atoms: _575  and  _577
REMARK  227  A    between atoms: _577  and  _578
REMARK  228  A    between atoms: _577  and  _580
REMARK  229  A    between atoms: _580  and  _581
REMARK  230  A    between atoms: _586  and  _587
REMARK  231  A    between atoms: _589  and  _591
REMARK  232  A    between atoms: _591  and  _592
REMARK  233  A    between atoms: _594  and  _596
REMARK  234  A    between atoms: _596  and  _597
REMARK  235  A    between atoms: _596  and  _599
REMARK  236  A    between atoms: _599  and  _600
REMARK  237  A    between atoms: _606  and  _608
REMARK  238  A    between atoms: _608  and  _609
REMARK  239  A    between atoms: _608  and  _611
REMARK  240  A    between atoms: _611  and  _612
REMARK  241  A    between atoms: _615  and  _617
REMARK  242  A    between atoms: _617  and  _618
REMARK  243  A    between atoms: _617  and  _620
REMARK  244  A    between atoms: _620  and  _621
REMARK  245  A    between atoms: _621  and  _622
REMARK  246  A    between atoms: _627  and  _629
REMARK  247  A    between atoms: _629  and  _630
REMARK  248  A    between atoms: _633  and  _635
REMARK  249  A    between atoms: _635  and  _636
REMARK  250  A    between atoms: _638  and  _640
REMARK  251  A    between atoms: _640  and  _641
REMARK  252  A    between atoms: _640  and  _643
REMARK  253  A    between atoms: _643  and  _644
REMARK  254  A    between atoms: _644  and  _645
REMARK  255  A    between atoms: _648  and  _650
REMARK  256  A    between atoms: _650  and  _651
REMARK  257  A    between atoms: _650  and  _653
REMARK  258  A    between atoms: _653  and  _654
REMARK  259  A    between atoms: _657  and  _659
REMARK  260  A    between atoms: _659  and  _660
REMARK  261  A    between atoms: _659  and  _662
REMARK  262  A    between atoms: _662  and  _663
REMARK  263  A    between atoms: _663  and  _664
REMARK  264  A    between atoms: _664  and  _665
REMARK  265  A    between atoms: _674  and  _676
REMARK  266  A    between atoms: _676  and  _677
REMARK  267  A    between atoms: _676  and  _679
REMARK  268  A    between atoms: _679  and  _680
REMARK  269  A    between atoms: _685  and  _686
REMARK  270  A    between atoms: _688  and  _690
REMARK  271  A    between atoms: _690  and  _691
REMARK  272  A    between atoms: _693  and  _695
REMARK  273  A    between atoms: _695  and  _696
REMARK  274  A    between atoms: _695  and  _698
REMARK  275  A    between atoms: _698  and  _699
REMARK  276  A    between atoms: _705  and  _707
REMARK  277  A    between atoms: _707  and  _708
REMARK  278  A    between atoms: _707  and  _710
REMARK  279  A    between atoms: _710  and  _711
REMARK  280  A    between atoms: _714  and  _716
REMARK  281  A    between atoms: _716  and  _717
REMARK  282  A    between atoms: _716  and  _719
REMARK  283  A    between atoms: _719  and  _720
REMARK  284  A    between atoms: _720  and  _721
REMARK  285  A    between atoms: _726  and  _728
REMARK  286  A    between atoms: _728  and  _729
REMARK  287  A    between atoms: _728  and  _731
REMARK  288  A    between atoms: _731  and  _732
REMARK  289  A    between atoms: _732  and  _733
REMARK  290  A    between atoms: _733  and  _734
REMARK  291  A    between atoms: _734  and  _735
REMARK                            x       y       z     vdW  Elec       q    Type
REMARK                         _______ _______ _______ _____ _____    ______ ____
ROOT
ATOM      1  CA  TYR A   2      24.077 -14.194 183.968  0.00  0.00    +0.141 C 
ENDROOT
BRANCH   1   4
ATOM      2  C   GLY A   1      24.460 -15.954 182.303  0.00  0.00    +0.240 C 
ATOM      3  O   GLY A   1      23.658 -16.712 182.853  0.00  0.00    -0.274 OA
ATOM      4  N   TYR A   2      24.725 -14.735 182.767  0.00  0.00    -0.298 N 
ATOM      5  H   TYR A   2      25.416 -14.145 182.261  0.00  0.00    +0.150 HD
BRANCH   2   6
ATOM      6  CA  GLY A   1      25.210 -16.392 181.042  0.00  0.00    +0.169 C 
BRANCH   6   7
ATOM      7  N   GLY A   1      24.594 -17.525 180.355  0.00  0.00    -0.236 NA
ATOM      8  H   GLY A   1      24.536 -18.440 180.846  0.00  0.00    +0.142 HD
ENDBRANCH   6   7
ENDBRANCH   2   6
ENDBRANCH   1   4
BRANCH   1   9
ATOM      9  C   TYR A   2      22.670 -13.684 183.604  0.00  0.00    +0.227 C 
ATOM     10  O   TYR A   2      22.491 -12.968 182.618  0.00  0.00    -0.286 OA
ENDBRANCH   1   9
BRANCH   1  11
ATOM     11  CB  TYR A   2      24.968 -13.091 184.579  0.00  0.00    +0.054 C 
BRANCH  11  12
ATOM     12  CG  TYR A   2      26.290 -13.693 185.019  0.00  0.00    -0.020 A 
ATOM     13  CD2 TYR A   2      26.403 -14.369 186.226  0.00  0.00    -0.001 A 
ATOM     14  CE2 TYR A   2      27.602 -14.978 186.600  0.00  0.00    +0.036 A 
ATOM     15  CZ  TYR A   2      28.676 -14.963 185.733  0.00  0.00    +0.134 A 
ATOM     16  CE1 TYR A   2      28.575 -14.325 184.509  0.00  0.00    +0.036 A 
ATOM     17  CD1 TYR A   2      27.382 -13.713 184.156  0.00  0.00    -0.001 A 
BRANCH  15  18
ATOM     18  OH  TYR A   2      29.854 -15.577 186.089  0.00  0.00    -0.506 OA
ATOM     19  HH  TYR A   2      30.069 -16.284 185.430  0.00  0.00    +0.292 HD
ENDBRANCH  15  18
ENDBRANCH  11  12
ENDBRANCH   1  11
TORSDOF 7
REMARK  Name = ../refined-set-2016/4qij/4qij_pocket.pdb
REMARK  291 active torsions:
REMARK  status: ('A' for Active; 'I' for Inactive)
REMARK    1  A    between atoms: _1  and  _3
REMARK    2  A    between atoms: _3  and  _4
REMARK    3  A    between atoms: _3  and  _6
REMARK    4  A    between atoms: _6  and  _7
REMARK    5  A    between atoms: _7  and  _8
REMARK    6  A    between atoms: _8  and  _9
REMARK    7  A    between atoms: _19  and  _20
REMARK    8  A    between atoms: _25  and  _27
REMARK    9  A    between atoms: _27  and  _28
REMARK   10  A    between atoms: _27  and  _30
REMARK   11  A    between atoms: _30  and  _31
REMARK   12  A    between atoms: _31  and  _32
REMARK   13  A    between atoms: _35  and  _37
REMARK   14  A    between atoms: _37  and  _38
REMARK   15  A    between atoms: _37  and  _40
REMARK   16  A    between atoms: _43  and  _45
REMARK   17  A    between atoms: _45  and  _46
REMARK   18  A    between atoms: _45  and  _48
REMARK   19  A    between atoms: _48  and  _49
REMARK   20  A    between atoms: _49  and  _50
REMARK   21  A    between atoms: _50  and  _51
REMARK   22  A    between atoms: _60  and  _62
REMARK   23  A    between atoms: _62  and  _63
REMARK   24  A    between atoms: _62  and  _65
REMARK   25  A    between atoms: _65  and  _66
REMARK   26  A    between atoms: _71  and  _73
REMARK   27  A    between atoms: _73  and  _74
REMARK   28  A    between atoms: _77  and  _79
REMARK   29  A    between atoms: _79  and  _80
REMARK   30  A    between atoms: _79  and  _82
REMARK   31  A    between atoms: _82  and  _83
REMARK   32  A    between atoms: _89  and  _91
REMARK   33  A    between atoms: _91  and  _92
REMARK   34  A    between atoms: _91  and  _94
REMARK   35  A    between atoms: _97  and  _99
REMARK   36  A    between atoms: _99  and  _100
REMARK   37  A    between atoms: _99  and  _102
REMARK   38  A    between atoms: _102  and  _103
REMARK   39  A    between atoms: _105  and  _107
REMARK   40  A    between atoms: _107  and  _108
REMARK   41  A    between atoms: _107  and  _110
REMARK   42  A    between atoms: _110  and  _111
REMARK   43  A    between atoms: _111  and  _112
REMARK   44  A    between atoms: _112  and  _113
REMARK   45  A    between atoms: _113  and  _114
REMARK   46  A    between atoms: _118  and  _120
REMARK   47  A    between atoms: _120  and  _121
REMARK   48  A    between atoms: _120  and  _123
REMARK   49  A    between atoms: _123  and  _124
REMARK   50  A    between atoms: _127  and  _129
REMARK   51  A    between atoms: _129  and  _130
REMARK   52  A    between atoms: _132  and  _134
REMARK   53  A    between atoms: _134  and  _135
REMARK   54  A    between atoms: _134  and  _137
REMARK   55  A    between atoms: _137  and  _138
REMARK   56  A    between atoms: _148  and  _150
REMARK   57  A    between atoms: _150  and  _151
REMARK   58  A    between atoms: _154  and  _156
REMARK   59  A    between atoms: _156  and  _157
REMARK   60  A    between atoms: _156  and  _159
REMARK   61  A    between atoms: _159  and  _160
REMARK   62  A    between atoms: _166  and  _168
REMARK   63  A    between atoms: _168  and  _169
REMARK   64  A    between atoms: _168  and  _171
REMARK   65  A    between atoms: _173  and  _175
REMARK   66  A    between atoms: _175  and  _176
REMARK   67  A    between atoms: _175  and  _178
REMARK   68  A    between atoms: _178  and  _179
REMARK   69  A    between atoms: _181  and  _183
REMARK   70  A    between atoms: _183  and  _184
REMARK   71  A    between atoms: _186  and  _188
REMARK   72  A    between atoms: _188  and  _189
REMARK   73  A    between atoms: _191  and  _193
REMARK   74  A    between atoms: _193  and  _194
REMARK   75  A    between atoms: _193  and  _196
REMARK   76  A    between atoms: _196  and  _197
REMARK   77  A    between atoms: _200  and  _202
REMARK   78  A    between atoms: _202  and  _203
REMARK   79  A    between atoms: _202  and  _205
REMARK   80  A    between atoms: _205  and  _206
REMARK   81  A    between atoms: _206  and  _207
REMARK   82  A    between atoms: _212  and  _214
REMARK   83  A    between atoms: _214  and  _215
REMARK   84  A    between atoms: _214  and  _217
REMARK   85  A    between atoms: _217  and  _218
REMARK   86  A    between atoms: _218  and  _219
REMARK   87  A    between atoms: _219  and  _220
REMARK   88  A    between atoms: _229  and  _231
REMARK   89  A    between atoms: _231  and  _232
REMARK   90  A    between atoms: _231  and  _234
REMARK   91  A    between atoms: _234  and  _235
REMARK   92  A    between atoms: _238  and  _240
REMARK   93  A    between atoms: _240  and  _241
REMARK   94  A    between atoms: _240  and  _243
REMARK   95  A    between atoms: _243  and  _244
REMARK   96  A    between atoms: _244  and  _245
REMARK   97  A    between atoms: _245  and  _246
REMARK   98  A    between atoms: _255  and  _257
REMARK   99  A    between atoms: _257  and  _258
REMARK  100  A    between atoms: _260  and  _262
REMARK  101  A    between atoms: _262  and  _263
REMARK  102  A    between atoms: _262  and  _265
REMARK  103  A    between atoms: _265  and  _266
REMARK  104  A    between atoms: _271  and  _272
REMARK  105  A    between atoms: _274  and  _276
REMARK  106  A    between atoms: _276  and  _277
REMARK  107  A    between atoms: _276  and  _279
REMARK  108  A    between atoms: _279  and  _280
REMARK  109  A    between atoms: _283  and  _285
REMARK  110  A    between atoms: _285  and  _286
REMARK  111  A    between atoms: _285  and  _288
REMARK  112  A    between atoms: _288  and  _289
REMARK  113  A    between atoms: _289  and  _290
REMARK  114  A    between atoms: _290  and  _291
REMARK  115  A    between atoms: _300  and  _302
REMARK  116  A    between atoms: _302  and  _303
REMARK  117  A    between atoms: _302  and  _305
REMARK  118  A    between atoms: _305  and  _306
REMARK  119  A    between atoms: _309  and  _311
REMARK  120  A    between atoms: _311  and  _312
REMARK  121  A    between atoms: _311  and  _314
REMARK  122  A    between atoms: _314  and  _315
REMARK  123  A    between atoms: _320  and  _322
REMARK  124  A    between atoms: _322  and  _323
REMARK  125  A    between atoms: _322  and  _325
REMARK  126  A    between atoms: _325  and  _326
REMARK  127  A    between atoms: _329  and  _331
REMARK  128  A    between atoms: _331  and  _332
REMARK  129  A    between atoms: _331  and  _334
REMARK  130  A    between atoms: _334  and  _335
REMARK  131  A    between atoms: _338  and  _340
REMARK  132  A    between atoms: _340  and  _341
REMARK  133  A    between atoms: _340  and  _343
REMARK  134  A    between atoms: _343  and  _344
REMARK  135  A    between atoms: _344  and  _345
REMARK  136  A    between atoms: _348  and  _350
REMARK  137  A    between atoms: _350  and  _351
REMARK  138  A    between atoms: _350  and  _353
REMARK  139  A    between atoms: _353  and  _354
REMARK  140  A    between atoms: _354  and  _355
REMARK  141  A    between atoms: _360  and  _362
REMARK  142  A    between atoms: _362  and  _363
REMARK  143  A    between atoms: _365  and  _367
REMARK  144  A    between atoms: _367  and  _368
REMARK  145  A    between atoms: _367  and  _370
REMARK  146  A    between atoms: _370  and  _371
REMARK  147  A    between atoms: _381  and  _383
REMARK  148  A    between atoms: _383  and  _384
REMARK  149  A    between atoms: _387  and  _389
REMARK  150  A    between atoms: _389  and  _390
REMARK  151  A    between atoms: _393  and  _395
REMARK  152  A    between atoms: _395  and  _396
REMARK  153  A    between atoms: _398  and  _400
REMARK  154  A    between atoms: _400  and  _401
REMARK  155  A    between atoms: _403  and  _405
REMARK  156  A    between atoms: _405  and  _406
REMARK  157  A    between atoms: _408  and  _410
REMARK  158  A    between atoms: _410  and  _411
REMARK  159  A    between atoms: _410  and  _413
REMARK  160  A    between atoms: _413  and  _414
REMARK  161  A    between atoms: _419  and  _421
REMARK  162  A    between atoms: _421  and  _422
REMARK  163  A    between atoms: _421  and  _424
REMARK  164  A    between atoms: _424  and  _425
REMARK  165  A    between atoms: _427  and  _429
REMARK  166  A    between atoms: _429  and  _430
REMARK  167  A    between atoms: _429  and  _432
REMARK  168  A    between atoms: _432  and  _433
REMARK  169  A    between atoms: _436  and  _438
REMARK  170  A    between atoms: _438  and  _439
REMARK  171  A    between atoms: _438  and  _441
REMARK  172  A    between atoms: _441  and  _442
REMARK  173  A    between atoms: _442  and  _443
REMARK  174  A    between atoms: _443  and  _444
REMARK  175  A    between atoms: _453  and  _455
REMARK  176  A    between atoms: _455  and  _456
REMARK  177  A    between atoms: _455  and  _458
REMARK  178  A    between atoms: _458  and  _459
REMARK  179  A    between atoms: _465  and  _467
REMARK  180  A    between atoms: _467  and  _468
REMARK  181  A    between atoms: _467  and  _470
REMARK  182  A    between atoms: _470  and  _471
REMARK  183  A    between atoms: _471  and  _472
REMARK  184  A    between atoms: _472  and  _473
REMARK  185  A    between atoms: _473  and  _474
REMARK  186  A    between atoms: _478  and  _480
REMARK  187  A    between atoms: _480  and  _481
REMARK  188  A    between atoms: _480  and  _483
REMARK  189  A    between atoms: _483  and  _484
REMARK  190  A    between atoms: _484  and  _485
REMARK  191  A    between atoms: _490  and  _492
REMARK  192  A    between atoms: _492  and  _493
REMARK  193  A    between atoms: _492  and  _495
REMARK  194  A    between atoms: _495  and  _496
REMARK  195  A    between atoms: _499  and  _501
REMARK  196  A    between atoms: _501  and  _502
REMARK  197  A    between atoms: _501  and  _504
REMARK  198  A    between atoms: _504  and  _505
REMARK  199  A    between atoms: _508  and  _510
REMARK  200  A    between atoms: _510  and  _511
REMARK  201  A    between atoms: _514  and  _516
REMARK  202  A    between atoms: _516  and  _517
REMARK  203  A    between atoms: _516  and  _519
REMARK  204  A    between atoms: _519  and  _520
REMARK  205  A    between atoms: _523  and  _525
REMARK  206  A    between atoms: _525  and  _526
REMARK  207  A    between atoms: _525  and  _528
REMARK  208  A    between atoms: _531  and  _533
REMARK  209  A    between atoms: _533  and  _534
REMARK  210  A    between atoms: _536  and  _538
REMARK  211  A    between atoms: _538  and  _539
REMARK  212  A    between atoms: _538  and  _541
REMARK  213  A    between atoms: _541  and  _542
REMARK  214  A    between atoms: _544  and  _546
REMARK  215  A    between atoms: _546  and  _547
REMARK  216  A    between atoms: _546  and  _549
REMARK  217  A    between atoms: _549  and  _550
REMARK  218  A    between atoms: _556  and  _558
REMARK  219  A    between atoms: _558  and  _559
REMARK  220  A    between atoms: _558  and  _561
REMARK  221  A    between atoms: _561  and  _562
REMARK  222  A    between atoms: _565  and  _567
REMARK  223  A    between atoms: _567  and  _568
REMARK  224  A    between atoms: _570  and  _572
REMARK  225  A    between atoms: _572  and  _573
REMARK  226  A    between atoms: _575  and  _577
REMARK  227  A    between atoms: _577  and  _578
REMARK  228  A    between atoms: _577  and  _580
REMARK  229  A    between atoms: _580  and  _581
REMARK  230  A    between atoms: _586  and  _587
REMARK  231  A    between atoms: _589  and  _591
REMARK  232  A    between atoms: _591  and  _592
REMARK  233  A    between atoms: _594  and  _596
REMARK  234  A    between atoms: _596  and  _597
REMARK  235  A    between atoms: _596  and  _599
REMARK  236  A    between atoms: _599  and  _600
REMARK  237  A    between atoms: _606  and  _608
REMARK  238  A    between atoms: _608  and  _609
REMARK  239  A    between atoms: _608  and  _611
REMARK  240  A    between atoms: _611  and  _612
REMARK  241  A    between atoms: _615  and  _617
REMARK  242  A    between atoms: _617  and  _618
REMARK  243  A    between atoms: _617  and  _620
REMARK  244  A    between atoms: _620  and  _621
REMARK  245  A    between atoms: _621  and  _622
REMARK  246  A    between atoms: _627  and  _629
REMARK  247  A    between atoms: _629  and  _630
REMARK  248  A    between atoms: _633  and  _635
REMARK  249  A    between atoms: _635  and  _636
REMARK  250  A    between atoms: _638  and  _640
REMARK  251  A    between atoms: _640  and  _641
REMARK  252  A    between atoms: _640  and  _643
REMARK  253  A    between atoms: _643  and  _644
REMARK  254  A    between atoms: _644  and  _645
REMARK  255  A    between atoms: _648  and  _650
REMARK  256  A    between atoms: _650  and  _651
REMARK  257  A    between atoms: _650  and  _653
REMARK  258  A    between atoms: _653  and  _654
REMARK  259  A    between atoms: _657  and  _659
REMARK  260  A    between atoms: _659  and  _660
REMARK  261  A    between atoms: _659  and  _662
REMARK  262  A    between atoms: _662  and  _663
REMARK  263  A    between atoms: _663  and  _664
REMARK  264  A    between atoms: _664  and  _665
REMARK  265  A    between atoms: _674  and  _676
REMARK  266  A    between atoms: _676  and  _677
REMARK  267  A    between atoms: _676  and  _679
REMARK  268  A    between atoms: _679  and  _680
REMARK  269  A    between atoms: _685  and  _686
REMARK  270  A    between atoms: _688  and  _690
REMARK  271  A    between atoms: _690  and  _691
REMARK  272  A    between atoms: _693  and  _695
REMARK  273  A    between atoms: _695  and  _696
REMARK  274  A    between atoms: _695  and  _698
REMARK  275  A    between atoms: _698  and  _699
REMARK  276  A    between atoms: _705  and  _707
REMARK  277  A    between atoms: _707  and  _708
REMARK  278  A    between atoms: _707  and  _710
REMARK  279  A    between atoms: _710  and  _711
REMARK  280  A    between atoms: _714  and  _716
REMARK  281  A    between atoms: _716  and  _717
REMARK  282  A    between atoms: _716  and  _719
REMARK  283  A    between atoms: _719  and  _720
REMARK  284  A    between atoms: _720  and  _721
REMARK  285  A    between atoms: _726  and  _728
REMARK  286  A    between atoms: _728  and  _729
REMARK  287  A    between atoms: _728  and  _731
REMARK  288  A    between atoms: _731  and  _732
REMARK  289  A    between atoms: _732  and  _733
REMARK  290  A    between atoms: _733  and  _734
REMARK  291  A    between atoms: _734  and  _735
REMARK                            x       y       z     vdW  Elec       q    Type
REMARK                         _______ _______ _______ _____ _____    ______ ____
ROOT
ATOM      1  CA  ASP A   1      18.008 -12.897 194.682  0.00  0.00    +0.144 C 
ENDROOT
BRANCH   1   2
ATOM      2  N   ASP A   1      16.564 -12.730 194.525  0.00  0.00    -0.239 NA
ATOM      3  H   ASP A   1      15.929 -13.064 195.278  0.00  0.00    +0.142 HD
ENDBRANCH   1   2
BRANCH   1   4
ATOM      4  C   ASP A   1      18.545 -14.258 194.245  0.00  0.00    +0.225 C 
ATOM      5  O   ASP A   1      19.755 -14.419 194.055  0.00  0.00    -0.287 OA
ENDBRANCH   1   4
BRANCH   1   6
ATOM      6  CB  ASP A   1      18.388 -12.682 196.141  0.00  0.00    +0.139 C 
BRANCH   6   7
ATOM      7  CG  ASP A   1      18.149 -11.272 196.595  0.00  0.00    +0.367 C 
ATOM      8  OD2 ASP A   1      17.966 -11.075 197.818  0.00  0.00    -0.246 OA
ATOM      9  OD1 ASP A   1      18.136 -10.368 195.730  0.00  0.00    -0.246 OA
ENDBRANCH   6   7
ENDBRANCH   1   6
TORSDOF 4
REMARK  Name = ../refined-set-2016/4qij/4qij_pocket.pdb
REMARK  291 active torsions:
REMARK  status: ('A' for Active; 'I' for Inactive)
REMARK    1  A    between atoms: _1  and  _3
REMARK    2  A    between atoms: _3  and  _4
REMARK    3  A    between atoms: _3  and  _6
REMARK    4  A    between atoms: _6  and  _7
REMARK    5  A    between atoms: _7  and  _8
REMARK    6  A    between atoms: _8  and  _9
REMARK    7  A    between atoms: _19  and  _20
REMARK    8  A    between atoms: _25  and  _27
REMARK    9  A    between atoms: _27  and  _28
REMARK   10  A    between atoms: _27  and  _30
REMARK   11  A    between atoms: _30  and  _31
REMARK   12  A    between atoms: _31  and  _32
REMARK   13  A    between atoms: _35  and  _37
REMARK   14  A    between atoms: _37  and  _38
REMARK   15  A    between atoms: _37  and  _40
REMARK   16  A    between atoms: _43  and  _45
REMARK   17  A    between atoms: _45  and  _46
REMARK   18  A    between atoms: _45  and  _48
REMARK   19  A    between atoms: _48  and  _49
REMARK   20  A    between atoms: _49  and  _50
REMARK   21  A    between atoms: _50  and  _51
REMARK   22  A    between atoms: _60  and  _62
REMARK   23  A    between atoms: _62  and  _63
REMARK   24  A    between atoms: _62  and  _65
REMARK   25  A    between atoms: _65  and  _66
REMARK   26  A    between atoms: _71  and  _73
REMARK   27  A    between atoms: _73  and  _74
REMARK   28  A    between atoms: _77  and  _79
REMARK   29  A    between atoms: _79  and  _80
REMARK   30  A    between atoms: _79  and  _82
REMARK   31  A    between atoms: _82  and  _83
REMARK   32  A    between atoms: _89  and  _91
REMARK   33  A    between atoms: _91  and  _92
REMARK   34  A    between atoms: _91  and  _94
REMARK   35  A    between atoms: _97  and  _99
REMARK   36  A    between atoms: _99  and  _100
REMARK   37  A    between atoms: _99  and  _102
REMARK   38  A    between atoms: _102  and  _103
REMARK   39  A    between atoms: _105  and  _107
REMARK   40  A    between atoms: _107  and  _108
REMARK   41  A    between atoms: _107  and  _110
REMARK   42  A    between atoms: _110  and  _111
REMARK   43  A    between atoms: _111  and  _112
REMARK   44  A    between atoms: _112  and  _113
REMARK   45  A    between atoms: _113  and  _114
REMARK   46  A    between atoms: _118  and  _120
REMARK   47  A    between atoms: _120  and  _121
REMARK   48  A    between atoms: _120  and  _123
REMARK   49  A    between atoms: _123  and  _124
REMARK   50  A    between atoms: _127  and  _129
REMARK   51  A    between atoms: _129  and  _130
REMARK   52  A    between atoms: _132  and  _134
REMARK   53  A    between atoms: _134  and  _135
REMARK   54  A    between atoms: _134  and  _137
REMARK   55  A    between atoms: _137  and  _138
REMARK   56  A    between atoms: _148  and  _150
REMARK   57  A    between atoms: _150  and  _151
REMARK   58  A    between atoms: _154  and  _156
REMARK   59  A    between atoms: _156  and  _157
REMARK   60  A    between atoms: _156  and  _159
REMARK   61  A    between atoms: _159  and  _160
REMARK   62  A    between atoms: _166  and  _168
REMARK   63  A    between atoms: _168  and  _169
REMARK   64  A    between atoms: _168  and  _171
REMARK   65  A    between atoms: _173  and  _175
REMARK   66  A    between atoms: _175  and  _176
REMARK   67  A    between atoms: _175  and  _178
REMARK   68  A    between atoms: _178  and  _179
REMARK   69  A    between atoms: _181  and  _183
REMARK   70  A    between atoms: _183  and  _184
REMARK   71  A    between atoms: _186  and  _188
REMARK   72  A    between atoms: _188  and  _189
REMARK   73  A    between atoms: _191  and  _193
REMARK   74  A    between atoms: _193  and  _194
REMARK   75  A    between atoms: _193  and  _196
REMARK   76  A    between atoms: _196  and  _197
REMARK   77  A    between atoms: _200  and  _202
REMARK   78  A    between atoms: _202  and  _203
REMARK   79  A    between atoms: _202  and  _205
REMARK   80  A    between atoms: _205  and  _206
REMARK   81  A    between atoms: _206  and  _207
REMARK   82  A    between atoms: _212  and  _214
REMARK   83  A    between atoms: _214  and  _215
REMARK   84  A    between atoms: _214  and  _217
REMARK   85  A    between atoms: _217  and  _218
REMARK   86  A    between atoms: _218  and  _219
REMARK   87  A    between atoms: _219  and  _220
REMARK   88  A    between atoms: _229  and  _231
REMARK   89  A    between atoms: _231  and  _232
REMARK   90  A    between atoms: _231  and  _234
REMARK   91  A    between atoms: _234  and  _235
REMARK   92  A    between atoms: _238  and  _240
REMARK   93  A    between atoms: _240  and  _241
REMARK   94  A    between atoms: _240  and  _243
REMARK   95  A    between atoms: _243  and  _244
REMARK   96  A    between atoms: _244  and  _245
REMARK   97  A    between atoms: _245  and  _246
REMARK   98  A    between atoms: _255  and  _257
REMARK   99  A    between atoms: _257  and  _258
REMARK  100  A    between atoms: _260  and  _262
REMARK  101  A    between atoms: _262  and  _263
REMARK  102  A    between atoms: _262  and  _265
REMARK  103  A    between atoms: _265  and  _266
REMARK  104  A    between atoms: _271  and  _272
REMARK  105  A    between atoms: _274  and  _276
REMARK  106  A    between atoms: _276  and  _277
REMARK  107  A    between atoms: _276  and  _279
REMARK  108  A    between atoms: _279  and  _280
REMARK  109  A    between atoms: _283  and  _285
REMARK  110  A    between atoms: _285  and  _286
REMARK  111  A    between atoms: _285  and  _288
REMARK  112  A    between atoms: _288  and  _289
REMARK  113  A    between atoms: _289  and  _290
REMARK  114  A    between atoms: _290  and  _291
REMARK  115  A    between atoms: _300  and  _302
REMARK  116  A    between atoms: _302  and  _303
REMARK  117  A    between atoms: _302  and  _305
REMARK  118  A    between atoms: _305  and  _306
REMARK  119  A    between atoms: _309  and  _311
REMARK  120  A    between atoms: _311  and  _312
REMARK  121  A    between atoms: _311  and  _314
REMARK  122  A    between atoms: _314  and  _315
REMARK  123  A    between atoms: _320  and  _322
REMARK  124  A    between atoms: _322  and  _323
REMARK  125  A    between atoms: _322  and  _325
REMARK  126  A    between atoms: _325  and  _326
REMARK  127  A    between atoms: _329  and  _331
REMARK  128  A    between atoms: _331  and  _332
REMARK  129  A    between atoms: _331  and  _334
REMARK  130  A    between atoms: _334  and  _335
REMARK  131  A    between atoms: _338  and  _340
REMARK  132  A    between atoms: _340  and  _341
REMARK  133  A    between atoms: _340  and  _343
REMARK  134  A    between atoms: _343  and  _344
REMARK  135  A    between atoms: _344  and  _345
REMARK  136  A    between atoms: _348  and  _350
REMARK  137  A    between atoms: _350  and  _351
REMARK  138  A    between atoms: _350  and  _353
REMARK  139  A    between atoms: _353  and  _354
REMARK  140  A    between atoms: _354  and  _355
REMARK  141  A    between atoms: _360  and  _362
REMARK  142  A    between atoms: _362  and  _363
REMARK  143  A    between atoms: _365  and  _367
REMARK  144  A    between atoms: _367  and  _368
REMARK  145  A    between atoms: _367  and  _370
REMARK  146  A    between atoms: _370  and  _371
REMARK  147  A    between atoms: _381  and  _383
REMARK  148  A    between atoms: _383  and  _384
REMARK  149  A    between atoms: _387  and  _389
REMARK  150  A    between atoms: _389  and  _390
REMARK  151  A    between atoms: _393  and  _395
REMARK  152  A    between atoms: _395  and  _396
REMARK  153  A    between atoms: _398  and  _400
REMARK  154  A    between atoms: _400  and  _401
REMARK  155  A    between atoms: _403  and  _405
REMARK  156  A    between atoms: _405  and  _406
REMARK  157  A    between atoms: _408  and  _410
REMARK  158  A    between atoms: _410  and  _411
REMARK  159  A    between atoms: _410  and  _413
REMARK  160  A    between atoms: _413  and  _414
REMARK  161  A    between atoms: _419  and  _421
REMARK  162  A    between atoms: _421  and  _422
REMARK  163  A    between atoms: _421  and  _424
REMARK  164  A    between atoms: _424  and  _425
REMARK  165  A    between atoms: _427  and  _429
REMARK  166  A    between atoms: _429  and  _430
REMARK  167  A    between atoms: _429  and  _432
REMARK  168  A    between atoms: _432  and  _433
REMARK  169  A    between atoms: _436  and  _438
REMARK  170  A    between atoms: _438  and  _439
REMARK  171  A    between atoms: _438  and  _441
REMARK  172  A    between atoms: _441  and  _442
REMARK  173  A    between atoms: _442  and  _443
REMARK  174  A    between atoms: _443  and  _444
REMARK  175  A    between atoms: _453  and  _455
REMARK  176  A    between atoms: _455  and  _456
REMARK  177  A    between atoms: _455  and  _458
REMARK  178  A    between atoms: _458  and  _459
REMARK  179  A    between atoms: _465  and  _467
REMARK  180  A    between atoms: _467  and  _468
REMARK  181  A    between atoms: _467  and  _470
REMARK  182  A    between atoms: _470  and  _471
REMARK  183  A    between atoms: _471  and  _472
REMARK  184  A    between atoms: _472  and  _473
REMARK  185  A    between atoms: _473  and  _474
REMARK  186  A    between atoms: _478  and  _480
REMARK  187  A    between atoms: _480  and  _481
REMARK  188  A    between atoms: _480  and  _483
REMARK  189  A    between atoms: _483  and  _484
REMARK  190  A    between atoms: _484  and  _485
REMARK  191  A    between atoms: _490  and  _492
REMARK  192  A    between atoms: _492  and  _493
REMARK  193  A    between atoms: _492  and  _495
REMARK  194  A    between atoms: _495  and  _496
REMARK  195  A    between atoms: _499  and  _501
REMARK  196  A    between atoms: _501  and  _502
REMARK  197  A    between atoms: _501  and  _504
REMARK  198  A    between atoms: _504  and  _505
REMARK  199  A    between atoms: _508  and  _510
REMARK  200  A    between atoms: _510  and  _511
REMARK  201  A    between atoms: _514  and  _516
REMARK  202  A    between atoms: _516  and  _517
REMARK  203  A    between atoms: _516  and  _519
REMARK  204  A    between atoms: _519  and  _520
REMARK  205  A    between atoms: _523  and  _525
REMARK  206  A    between atoms: _525  and  _526
REMARK  207  A    between atoms: _525  and  _528
REMARK  208  A    between atoms: _531  and  _533
REMARK  209  A    between atoms: _533  and  _534
REMARK  210  A    between atoms: _536  and  _538
REMARK  211  A    between atoms: _538  and  _539
REMARK  212  A    between atoms: _538  and  _541
REMARK  213  A    between atoms: _541  and  _542
REMARK  214  A    between atoms: _544  and  _546
REMARK  215  A    between atoms: _546  and  _547
REMARK  216  A    between atoms: _546  and  _549
REMARK  217  A    between atoms: _549  and  _550
REMARK  218  A    between atoms: _556  and  _558
REMARK  219  A    between atoms: _558  and  _559
REMARK  220  A    between atoms: _558  and  _561
REMARK  221  A    between atoms: _561  and  _562
REMARK  222  A    between atoms: _565  and  _567
REMARK  223  A    between atoms: _567  and  _568
REMARK  224  A    between atoms: _570  and  _572
REMARK  225  A    between atoms: _572  and  _573
REMARK  226  A    between atoms: _575  and  _577
REMARK  227  A    between atoms: _577  and  _578
REMARK  228  A    between atoms: _577  and  _580
REMARK  229  A    between atoms: _580  and  _581
REMARK  230  A    between atoms: _586  and  _587
REMARK  231  A    between atoms: _589  and  _591
REMARK  232  A    between atoms: _591  and  _592
REMARK  233  A    between atoms: _594  and  _596
REMARK  234  A    between atoms: _596  and  _597
REMARK  235  A    between atoms: _596  and  _599
REMARK  236  A    between atoms: _599  and  _600
REMARK  237  A    between atoms: _606  and  _608
REMARK  238  A    between atoms: _608  and  _609
REMARK  239  A    between atoms: _608  and  _611
REMARK  240  A    between atoms: _611  and  _612
REMARK  241  A    between atoms: _615  and  _617
REMARK  242  A    between atoms: _617  and  _618
REMARK  243  A    between atoms: _617  and  _620
REMARK  244  A    between atoms: _620  and  _621
REMARK  245  A    between atoms: _621  and  _622
REMARK  246  A    between atoms: _627  and  _629
REMARK  247  A    between atoms: _629  and  _630
REMARK  248  A    between atoms: _633  and  _635
REMARK  249  A    between atoms: _635  and  _636
REMARK  250  A    between atoms: _638  and  _640
REMARK  251  A    between atoms: _640  and  _641
REMARK  252  A    between atoms: _640  and  _643
REMARK  253  A    between atoms: _643  and  _644
REMARK  254  A    between atoms: _644  and  _645
REMARK  255  A    between atoms: _648  and  _650
REMARK  256  A    between atoms: _650  and  _651
REMARK  257  A    between atoms: _650  and  _653
REMARK  258  A    between atoms: _653  and  _654
REMARK  259  A    between atoms: _657  and  _659
REMARK  260  A    between atoms: _659  and  _660
REMARK  261  A    between atoms: _659  and  _662
REMARK  262  A    between atoms: _662  and  _663
REMARK  263  A    between atoms: _663  and  _664
REMARK  264  A    between atoms: _664  and  _665
REMARK  265  A    between atoms: _674  and  _676
REMARK  266  A    between atoms: _676  and  _677
REMARK  267  A    between atoms: _676  and  _679
REMARK  268  A    between atoms: _679  and  _680
REMARK  269  A    between atoms: _685  and  _686
REMARK  270  A    between atoms: _688  and  _690
REMARK  271  A    between atoms: _690  and  _691
REMARK  272  A    between atoms: _693  and  _695
REMARK  273  A    between atoms: _695  and  _696
REMARK  274  A    between atoms: _695  and  _698
REMARK  275  A    between atoms: _698  and  _699
REMARK  276  A    between atoms: _705  and  _707
REMARK  277  A    between atoms: _707  and  _708
REMARK  278  A    between atoms: _707  and  _710
REMARK  279  A    between atoms: _710  and  _711
REMARK  280  A    between atoms: _714  and  _716
REMARK  281  A    between atoms: _716  and  _717
REMARK  282  A    between atoms: _716  and  _719
REMARK  283  A    between atoms: _719  and  _720
REMARK  284  A    between atoms: _720  and  _721
REMARK  285  A    between atoms: _726  and  _728
REMARK  286  A    between atoms: _728  and  _729
REMARK  287  A    between atoms: _728  and  _731
REMARK  288  A    between atoms: _731  and  _732
REMARK  289  A    between atoms: _732  and  _733
REMARK  290  A    between atoms: _733  and  _734
REMARK  291  A    between atoms: _734  and  _735
REMARK                            x       y       z     vdW  Elec       q    Type
REMARK                         _______ _______ _______ _____ _____    ______ ____
ROOT
ATOM      1  CA  HIS A   3      27.842  -7.497 179.622  0.00  0.00    +0.155 C 
ENDROOT
BRANCH   1   3
ATOM      2  C   LEU A   2      28.434  -9.806 179.841  0.00  0.00    +0.241 C 
ATOM      3  N   HIS A   3      27.538  -8.857 180.061  0.00  0.00    -0.297 N 
ATOM      4  H   HIS A   3      26.638  -9.074 180.535  0.00  0.00    +0.150 HD
ATOM      5  O   LEU A   2      29.583  -9.541 179.519  0.00  0.00    -0.273 OA
BRANCH   2   6
ATOM      6  CA  LEU A   2      27.971 -11.256 179.969  0.00  0.00    +0.149 C 
BRANCH   6   9
ATOM      7  C   ARG A   1      25.621 -11.893 180.015  0.00  0.00    +0.238 C 
ATOM      8  O   ARG A   1      25.705 -12.363 181.147  0.00  0.00    -0.274 OA
ATOM      9  N   LEU A   2      26.661 -11.393 179.358  0.00  0.00    -0.297 N 
ATOM     10  H   LEU A   2      26.533 -11.089 178.372  0.00  0.00    +0.150 HD
BRANCH   7  11
ATOM     11  CA  ARG A   1      24.290 -11.866 179.274  0.00  0.00    +0.145 C 
BRANCH  11  12
ATOM     12  N   ARG A   1      23.340 -12.815 179.851  0.00  0.00    -0.238 NA
ATOM     13  H   ARG A   1      23.242 -12.870 180.885  0.00  0.00    +0.142 HD
ENDBRANCH  11  12
BRANCH  11  14
ATOM     14  CB  ARG A   1      23.710 -10.452 179.291  0.00  0.00    +0.030 C 
BRANCH  14  15
ATOM     15  CG  ARG A   1      22.366 -10.335 178.590  0.00  0.00    +0.045 C 
BRANCH  15  16
ATOM     16  CD  ARG A   1      22.172  -8.942 178.074  0.00  0.00    +0.174 C 
BRANCH  16  17
ATOM     17  NE  ARG A   1      23.266  -8.558 177.187  0.00  0.00    -0.265 N 
ATOM     18  CZ  ARG A   1      23.675  -7.306 177.020  0.00  0.00    +0.342 C 
ATOM     19  NH2 ARG A   1      23.080  -6.332 177.694  0.00  0.00    -0.292 N 
ATOM     20 HH21 ARG A   1      22.300  -6.552 178.346  0.00  0.00    +0.255 HD
ATOM     21 HH22 ARG A   1      23.393  -5.348 177.570  0.00  0.00    +0.255 HD
ATOM     22  NH1 ARG A   1      24.677  -7.027 176.188  0.00  0.00    -0.292 N 
ATOM     23 HH11 ARG A   1      24.991  -6.043 176.063  0.00  0.00    +0.255 HD
ATOM     24 HH12 ARG A   1      25.146  -7.793 175.663  0.00  0.00    +0.255 HD
ATOM     25  HE  ARG A   1      23.753  -9.308 176.656  0.00  0.00    +0.259 HD
ENDBRANCH  16  17
ENDBRANCH  15  16
ENDBRANCH  14  15
ENDBRANCH  11  14
ENDBRANCH   7  11
ENDBRANCH   6   9
BRANCH   6  26
ATOM     26  CB  LEU A   2      28.966 -12.198 179.292  0.00  0.00    +0.029 C 
BRANCH  26  27
ATOM     27  CG  LEU A   2      28.687 -13.701 179.426  0.00  0.00    +0.002 C 
ATOM     28  CD2 LEU A   2      28.663 -14.126 180.880  0.00  0.00    +0.000 C 
ATOM     29  CD1 LEU A   2      29.711 -14.498 178.650  0.00  0.00    +0.000 C 
ENDBRANCH  26  27
ENDBRANCH   6  26
ENDBRANCH   2   6
ENDBRANCH   1   3
BRANCH   1  30
ATOM     30  C   HIS A   3      28.584  -6.633 180.665  0.00  0.00    +0.241 C 
ATOM     31  N   ILE A   4      29.211  -7.257 181.660  0.00  0.00    -0.297 N 
ATOM     32  H   ILE A   4      28.969  -8.238 181.905  0.00  0.00    +0.150 HD
ATOM     33  O   HIS A   3      28.627  -5.416 180.537  0.00  0.00    -0.273 OA
BRANCH  31  34
ATOM     34  CA  ILE A   4      30.245  -6.539 182.401  0.00  0.00    +0.149 C 
BRANCH  34  35
ATOM     35  C   ILE A   4      31.335  -6.128 181.400  0.00  0.00    +0.241 C 
ATOM     36  O   ILE A   4      32.071  -5.169 181.632  0.00  0.00    -0.273 OA
ATOM     37  N   LEU A   5      31.430  -6.854 180.280  0.00  0.00    -0.297 N 
ATOM     38  H   LEU A   5      30.821  -7.689 180.163  0.00  0.00    +0.150 HD
BRANCH  37  39
ATOM     39  CA  LEU A   5      32.370  -6.502 179.217  0.00  0.00    +0.149 C 
BRANCH  39  40
ATOM     40  C   LEU A   5      32.106  -5.087 178.681  0.00  0.00    +0.241 C 
ATOM     41  N   GLU A   6      30.839  -4.679 178.643  0.00  0.00    -0.298 N 
ATOM     42  H   GLU A   6      30.086  -5.340 178.920  0.00  0.00    +0.150 HD
ATOM     43  O   LEU A   5      33.041  -4.370 178.341  0.00  0.00    -0.273 OA
BRANCH  41  44
ATOM     44  CA  GLU A   6      30.479  -3.326 178.222  0.00  0.00    +0.137 C 
BRANCH  44  45
ATOM     45  C   GLU A   6      30.926  -2.293 179.258  0.00  0.00    +0.227 C 
ATOM     46  O   GLU A   6      31.342  -1.195 178.917  0.00  0.00    -0.286 OA
ENDBRANCH  44  45
BRANCH  44  47
ATOM     47  CB  GLU A   6      28.975  -3.238 177.960  0.00  0.00    +0.039 C 
BRANCH  47  48
ATOM     48  CG  GLU A   6      28.535  -4.167 176.803  0.00  0.00    +0.116 C 
BRANCH  48  49
ATOM     49  CD  GLU A   6      27.015  -4.203 176.563  0.00  0.00    +0.365 C 
ATOM     50  OE2 GLU A   6      26.268  -3.461 177.228  0.00  0.00    -0.246 OA
ATOM     51  OE1 GLU A   6      26.570  -4.978 175.691  0.00  0.00    -0.246 OA
ENDBRANCH  48  49
ENDBRANCH  47  48
ENDBRANCH  44  47
ENDBRANCH  41  44
ENDBRANCH  39  40
BRANCH  39  52
ATOM     52  CB  LEU A   5      32.308  -7.534 178.073  0.00  0.00    +0.029 C 
BRANCH  52  53
ATOM     53  CG  LEU A   5      32.692  -8.966 178.477  0.00  0.00    +0.002 C 
ATOM     54  CD2 LEU A   5      34.047  -8.979 179.180  0.00  0.00    +0.000 C 
ATOM     55  CD1 LEU A   5      32.688  -9.934 177.295  0.00  0.00    +0.000 C 
ENDBRANCH  52  53
ENDBRANCH  39  52
ENDBRANCH  37  39
ENDBRANCH  34  35
BRANCH  34  56
ATOM     56  CB  ILE A   4      30.857  -7.380 183.567  0.00  0.00    +0.027 C 
ATOM     57  CG2 ILE A   4      31.746  -8.522 183.034  0.00  0.00    +0.002 C 
BRANCH  56  58
ATOM     58  CG1 ILE A   4      31.635  -6.482 184.544  0.00  0.00    +0.002 C 
ATOM     59  CD1 ILE A   4      30.752  -5.524 185.337  0.00  0.00    +0.000 C 
ENDBRANCH  56  58
ENDBRANCH  34  56
ENDBRANCH  31  34
ENDBRANCH   1  30
BRANCH   1  60
ATOM     60  CB  HIS A   3      26.563  -6.788 179.129  0.00  0.00    +0.076 C 
BRANCH  60  61
ATOM     61  CG  HIS A   3      25.507  -6.589 180.178  0.00  0.00    +0.082 A 
ATOM     62  ND1 HIS A   3      25.194  -7.541 181.129  0.00  0.00    -0.227 NA
ATOM     63  CE1 HIS A   3      24.221  -7.090 181.899  0.00  0.00    +0.199 A 
ATOM     64  NE2 HIS A   3      23.895  -5.876 181.488  0.00  0.00    -0.221 NA
ATOM     65  CD2 HIS A   3      24.678  -5.544 180.409  0.00  0.00    +0.115 A 
ENDBRANCH  60  61
ENDBRANCH   1  60
TORSDOF 27
REMARK  Name = ../refined-set-2016/4qij/4qij_pocket.pdb
REMARK  291 active torsions:
REMARK  status: ('A' for Active; 'I' for Inactive)
REMARK    1  A    between atoms: _1  and  _3
REMARK    2  A    between atoms: _3  and  _4
REMARK    3  A    between atoms: _3  and  _6
REMARK    4  A    between atoms: _6  and  _7
REMARK    5  A    between atoms: _7  and  _8
REMARK    6  A    between atoms: _8  and  _9
REMARK    7  A    between atoms: _19  and  _20
REMARK    8  A    between atoms: _25  and  _27
REMARK    9  A    between atoms: _27  and  _28
REMARK   10  A    between atoms: _27  and  _30
REMARK   11  A    between atoms: _30  and  _31
REMARK   12  A    between atoms: _31  and  _32
REMARK   13  A    between atoms: _35  and  _37
REMARK   14  A    between atoms: _37  and  _38
REMARK   15  A    between atoms: _37  and  _40
REMARK   16  A    between atoms: _43  and  _45
REMARK   17  A    between atoms: _45  and  _46
REMARK   18  A    between atoms: _45  and  _48
REMARK   19  A    between atoms: _48  and  _49
REMARK   20  A    between atoms: _49  and  _50
REMARK   21  A    between atoms: _50  and  _51
REMARK   22  A    between atoms: _60  and  _62
REMARK   23  A    between atoms: _62  and  _63
REMARK   24  A    between atoms: _62  and  _65
REMARK   25  A    between atoms: _65  and  _66
REMARK   26  A    between atoms: _71  and  _73
REMARK   27  A    between atoms: _73  and  _74
REMARK   28  A    between atoms: _77  and  _79
REMARK   29  A    between atoms: _79  and  _80
REMARK   30  A    between atoms: _79  and  _82
REMARK   31  A    between atoms: _82  and  _83
REMARK   32  A    between atoms: _89  and  _91
REMARK   33  A    between atoms: _91  and  _92
REMARK   34  A    between atoms: _91  and  _94
REMARK   35  A    between atoms: _97  and  _99
REMARK   36  A    between atoms: _99  and  _100
REMARK   37  A    between atoms: _99  and  _102
REMARK   38  A    between atoms: _102  and  _103
REMARK   39  A    between atoms: _105  and  _107
REMARK   40  A    between atoms: _107  and  _108
REMARK   41  A    between atoms: _107  and  _110
REMARK   42  A    between atoms: _110  and  _111
REMARK   43  A    between atoms: _111  and  _112
REMARK   44  A    between atoms: _112  and  _113
REMARK   45  A    between atoms: _113  and  _114
REMARK   46  A    between atoms: _118  and  _120
REMARK   47  A    between atoms: _120  and  _121
REMARK   48  A    between atoms: _120  and  _123
REMARK   49  A    between atoms: _123  and  _124
REMARK   50  A    between atoms: _127  and  _129
REMARK   51  A    between atoms: _129  and  _130
REMARK   52  A    between atoms: _132  and  _134
REMARK   53  A    between atoms: _134  and  _135
REMARK   54  A    between atoms: _134  and  _137
REMARK   55  A    between atoms: _137  and  _138
REMARK   56  A    between atoms: _148  and  _150
REMARK   57  A    between atoms: _150  and  _151
REMARK   58  A    between atoms: _154  and  _156
REMARK   59  A    between atoms: _156  and  _157
REMARK   60  A    between atoms: _156  and  _159
REMARK   61  A    between atoms: _159  and  _160
REMARK   62  A    between atoms: _166  and  _168
REMARK   63  A    between atoms: _168  and  _169
REMARK   64  A    between atoms: _168  and  _171
REMARK   65  A    between atoms: _173  and  _175
REMARK   66  A    between atoms: _175  and  _176
REMARK   67  A    between atoms: _175  and  _178
REMARK   68  A    between atoms: _178  and  _179
REMARK   69  A    between atoms: _181  and  _183
REMARK   70  A    between atoms: _183  and  _184
REMARK   71  A    between atoms: _186  and  _188
REMARK   72  A    between atoms: _188  and  _189
REMARK   73  A    between atoms: _191  and  _193
REMARK   74  A    between atoms: _193  and  _194
REMARK   75  A    between atoms: _193  and  _196
REMARK   76  A    between atoms: _196  and  _197
REMARK   77  A    between atoms: _200  and  _202
REMARK   78  A    between atoms: _202  and  _203
REMARK   79  A    between atoms: _202  and  _205
REMARK   80  A    between atoms: _205  and  _206
REMARK   81  A    between atoms: _206  and  _207
REMARK   82  A    between atoms: _212  and  _214
REMARK   83  A    between atoms: _214  and  _215
REMARK   84  A    between atoms: _214  and  _217
REMARK   85  A    between atoms: _217  and  _218
REMARK   86  A    between atoms: _218  and  _219
REMARK   87  A    between atoms: _219  and  _220
REMARK   88  A    between atoms: _229  and  _231
REMARK   89  A    between atoms: _231  and  _232
REMARK   90  A    between atoms: _231  and  _234
REMARK   91  A    between atoms: _234  and  _235
REMARK   92  A    between atoms: _238  and  _240
REMARK   93  A    between atoms: _240  and  _241
REMARK   94  A    between atoms: _240  and  _243
REMARK   95  A    between atoms: _243  and  _244
REMARK   96  A    between atoms: _244  and  _245
REMARK   97  A    between atoms: _245  and  _246
REMARK   98  A    between atoms: _255  and  _257
REMARK   99  A    between atoms: _257  and  _258
REMARK  100  A    between atoms: _260  and  _262
REMARK  101  A    between atoms: _262  and  _263
REMARK  102  A    between atoms: _262  and  _265
REMARK  103  A    between atoms: _265  and  _266
REMARK  104  A    between atoms: _271  and  _272
REMARK  105  A    between atoms: _274  and  _276
REMARK  106  A    between atoms: _276  and  _277
REMARK  107  A    between atoms: _276  and  _279
REMARK  108  A    between atoms: _279  and  _280
REMARK  109  A    between atoms: _283  and  _285
REMARK  110  A    between atoms: _285  and  _286
REMARK  111  A    between atoms: _285  and  _288
REMARK  112  A    between atoms: _288  and  _289
REMARK  113  A    between atoms: _289  and  _290
REMARK  114  A    between atoms: _290  and  _291
REMARK  115  A    between atoms: _300  and  _302
REMARK  116  A    between atoms: _302  and  _303
REMARK  117  A    between atoms: _302  and  _305
REMARK  118  A    between atoms: _305  and  _306
REMARK  119  A    between atoms: _309  and  _311
REMARK  120  A    between atoms: _311  and  _312
REMARK  121  A    between atoms: _311  and  _314
REMARK  122  A    between atoms: _314  and  _315
REMARK  123  A    between atoms: _320  and  _322
REMARK  124  A    between atoms: _322  and  _323
REMARK  125  A    between atoms: _322  and  _325
REMARK  126  A    between atoms: _325  and  _326
REMARK  127  A    between atoms: _329  and  _331
REMARK  128  A    between atoms: _331  and  _332
REMARK  129  A    between atoms: _331  and  _334
REMARK  130  A    between atoms: _334  and  _335
REMARK  131  A    between atoms: _338  and  _340
REMARK  132  A    between atoms: _340  and  _341
REMARK  133  A    between atoms: _340  and  _343
REMARK  134  A    between atoms: _343  and  _344
REMARK  135  A    between atoms: _344  and  _345
REMARK  136  A    between atoms: _348  and  _350
REMARK  137  A    between atoms: _350  and  _351
REMARK  138  A    between atoms: _350  and  _353
REMARK  139  A    between atoms: _353  and  _354
REMARK  140  A    between atoms: _354  and  _355
REMARK  141  A    between atoms: _360  and  _362
REMARK  142  A    between atoms: _362  and  _363
REMARK  143  A    between atoms: _365  and  _367
REMARK  144  A    between atoms: _367  and  _368
REMARK  145  A    between atoms: _367  and  _370
REMARK  146  A    between atoms: _370  and  _371
REMARK  147  A    between atoms: _381  and  _383
REMARK  148  A    between atoms: _383  and  _384
REMARK  149  A    between atoms: _387  and  _389
REMARK  150  A    between atoms: _389  and  _390
REMARK  151  A    between atoms: _393  and  _395
REMARK  152  A    between atoms: _395  and  _396
REMARK  153  A    between atoms: _398  and  _400
REMARK  154  A    between atoms: _400  and  _401
REMARK  155  A    between atoms: _403  and  _405
REMARK  156  A    between atoms: _405  and  _406
REMARK  157  A    between atoms: _408  and  _410
REMARK  158  A    between atoms: _410  and  _411
REMARK  159  A    between atoms: _410  and  _413
REMARK  160  A    between atoms: _413  and  _414
REMARK  161  A    between atoms: _419  and  _421
REMARK  162  A    between atoms: _421  and  _422
REMARK  163  A    between atoms: _421  and  _424
REMARK  164  A    between atoms: _424  and  _425
REMARK  165  A    between atoms: _427  and  _429
REMARK  166  A    between atoms: _429  and  _430
REMARK  167  A    between atoms: _429  and  _432
REMARK  168  A    between atoms: _432  and  _433
REMARK  169  A    between atoms: _436  and  _438
REMARK  170  A    between atoms: _438  and  _439
REMARK  171  A    between atoms: _438  and  _441
REMARK  172  A    between atoms: _441  and  _442
REMARK  173  A    between atoms: _442  and  _443
REMARK  174  A    between atoms: _443  and  _444
REMARK  175  A    between atoms: _453  and  _455
REMARK  176  A    between atoms: _455  and  _456
REMARK  177  A    between atoms: _455  and  _458
REMARK  178  A    between atoms: _458  and  _459
REMARK  179  A    between atoms: _465  and  _467
REMARK  180  A    between atoms: _467  and  _468
REMARK  181  A    between atoms: _467  and  _470
REMARK  182  A    between atoms: _470  and  _471
REMARK  183  A    between atoms: _471  and  _472
REMARK  184  A    between atoms: _472  and  _473
REMARK  185  A    between atoms: _473  and  _474
REMARK  186  A    between atoms: _478  and  _480
REMARK  187  A    between atoms: _480  and  _481
REMARK  188  A    between atoms: _480  and  _483
REMARK  189  A    between atoms: _483  and  _484
REMARK  190  A    between atoms: _484  and  _485
REMARK  191  A    between atoms: _490  and  _492
REMARK  192  A    between atoms: _492  and  _493
REMARK  193  A    between atoms: _492  and  _495
REMARK  194  A    between atoms: _495  and  _496
REMARK  195  A    between atoms: _499  and  _501
REMARK  196  A    between atoms: _501  and  _502
REMARK  197  A    between atoms: _501  and  _504
REMARK  198  A    between atoms: _504  and  _505
REMARK  199  A    between atoms: _508  and  _510
REMARK  200  A    between atoms: _510  and  _511
REMARK  201  A    between atoms: _514  and  _516
REMARK  202  A    between atoms: _516  and  _517
REMARK  203  A    between atoms: _516  and  _519
REMARK  204  A    between atoms: _519  and  _520
REMARK  205  A    between atoms: _523  and  _525
REMARK  206  A    between atoms: _525  and  _526
REMARK  207  A    between atoms: _525  and  _528
REMARK  208  A    between atoms: _531  and  _533
REMARK  209  A    between atoms: _533  and  _534
REMARK  210  A    between atoms: _536  and  _538
REMARK  211  A    between atoms: _538  and  _539
REMARK  212  A    between atoms: _538  and  _541
REMARK  213  A    between atoms: _541  and  _542
REMARK  214  A    between atoms: _544  and  _546
REMARK  215  A    between atoms: _546  and  _547
REMARK  216  A    between atoms: _546  and  _549
REMARK  217  A    between atoms: _549  and  _550
REMARK  218  A    between atoms: _556  and  _558
REMARK  219  A    between atoms: _558  and  _559
REMARK  220  A    between atoms: _558  and  _561
REMARK  221  A    between atoms: _561  and  _562
REMARK  222  A    between atoms: _565  and  _567
REMARK  223  A    between atoms: _567  and  _568
REMARK  224  A    between atoms: _570  and  _572
REMARK  225  A    between atoms: _572  and  _573
REMARK  226  A    between atoms: _575  and  _577
REMARK  227  A    between atoms: _577  and  _578
REMARK  228  A    between atoms: _577  and  _580
REMARK  229  A    between atoms: _580  and  _581
REMARK  230  A    between atoms: _586  and  _587
REMARK  231  A    between atoms: _589  and  _591
REMARK  232  A    between atoms: _591  and  _592
REMARK  233  A    between atoms: _594  and  _596
REMARK  234  A    between atoms: _596  and  _597
REMARK  235  A    between atoms: _596  and  _599
REMARK  236  A    between atoms: _599  and  _600
REMARK  237  A    between atoms: _606  and  _608
REMARK  238  A    between atoms: _608  and  _609
REMARK  239  A    between atoms: _608  and  _611
REMARK  240  A    between atoms: _611  and  _612
REMARK  241  A    between atoms: _615  and  _617
REMARK  242  A    between atoms: _617  and  _618
REMARK  243  A    between atoms: _617  and  _620
REMARK  244  A    between atoms: _620  and  _621
REMARK  245  A    between atoms: _621  and  _622
REMARK  246  A    between atoms: _627  and  _629
REMARK  247  A    between atoms: _629  and  _630
REMARK  248  A    between atoms: _633  and  _635
REMARK  249  A    between atoms: _635  and  _636
REMARK  250  A    between atoms: _638  and  _640
REMARK  251  A    between atoms: _640  and  _641
REMARK  252  A    between atoms: _640  and  _643
REMARK  253  A    between atoms: _643  and  _644
REMARK  254  A    between atoms: _644  and  _645
REMARK  255  A    between atoms: _648  and  _650
REMARK  256  A    between atoms: _650  and  _651
REMARK  257  A    between atoms: _650  and  _653
REMARK  258  A    between atoms: _653  and  _654
REMARK  259  A    between atoms: _657  and  _659
REMARK  260  A    between atoms: _659  and  _660
REMARK  261  A    between atoms: _659  and  _662
REMARK  262  A    between atoms: _662  and  _663
REMARK  263  A    between atoms: _663  and  _664
REMARK  264  A    between atoms: _664  and  _665
REMARK  265  A    between atoms: _674  and  _676
REMARK  266  A    between atoms: _676  and  _677
REMARK  267  A    between atoms: _676  and  _679
REMARK  268  A    between atoms: _679  and  _680
REMARK  269  A    between atoms: _685  and  _686
REMARK  270  A    between atoms: _688  and  _690
REMARK  271  A    between atoms: _690  and  _691
REMARK  272  A    between atoms: _693  and  _695
REMARK  273  A    between atoms: _695  and  _696
REMARK  274  A    between atoms: _695  and  _698
REMARK  275  A    between atoms: _698  and  _699
REMARK  276  A    between atoms: _705  and  _707
REMARK  277  A    between atoms: _707  and  _708
REMARK  278  A    between atoms: _707  and  _710
REMARK  279  A    between atoms: _710  and  _711
REMARK  280  A    between atoms: _714  and  _716
REMARK  281  A    between atoms: _716  and  _717
REMARK  282  A    between atoms: _716  and  _719
REMARK  283  A    between atoms: _719  and  _720
REMARK  284  A    between atoms: _720  and  _721
REMARK  285  A    between atoms: _726  and  _728
REMARK  286  A    between atoms: _728  and  _729
REMARK  287  A    between atoms: _728  and  _731
REMARK  288  A    between atoms: _731  and  _732
REMARK  289  A    between atoms: _732  and  _733
REMARK  290  A    between atoms: _733  and  _734
REMARK  291  A    between atoms: _734  and  _735
REMARK                            x       y       z     vdW  Elec       q    Type
REMARK                         _______ _______ _______ _____ _____    ______ ____
ROOT
ATOM      1  CB  GLN A   1      35.570  -4.123 180.657  0.00  0.00    +0.035 C 
ENDROOT
BRANCH   1   2
ATOM      2  CA  GLN A   1      35.031  -2.728 180.997  0.00  0.00    +0.134 C 
BRANCH   2   3
ATOM      3  N   GLN A   1      33.580  -2.766 181.196  0.00  0.00    -0.239 NA
ATOM      4  H   GLN A   1      33.073  -3.672 181.138  0.00  0.00    +0.142 HD
ENDBRANCH   2   3
BRANCH   2   5
ATOM      5  C   GLN A   1      35.463  -1.747 179.898  0.00  0.00    +0.224 C 
ATOM      6  O   GLN A   1      36.425  -0.986 180.082  0.00  0.00    -0.287 OA
ENDBRANCH   2   5
ENDBRANCH   1   2
BRANCH   1   7
ATOM      7  CG  GLN A   1      35.648  -5.088 181.814  0.00  0.00    +0.087 C 
BRANCH   7   8
ATOM      8  CD  GLN A   1      36.238  -6.429 181.386  0.00  0.00    +0.219 C 
ATOM      9  NE2 GLN A   1      36.351  -7.343 182.325  0.00  0.00    -0.329 N 
ATOM     10 HE21 GLN A   1      36.057  -7.127 183.299  0.00  0.00    +0.145 HD
ATOM     11 HE22 GLN A   1      36.734  -8.282 182.093  0.00  0.00    +0.145 HD
ATOM     12  OE1 GLN A   1      36.572  -6.636 180.217  0.00  0.00    -0.275 OA
ENDBRANCH   7   8
ENDBRANCH   1   7
TORSDOF 5
REMARK  Name = ../refined-set-2016/4qij/4qij_pocket.pdb
REMARK  291 active torsions:
REMARK  status: ('A' for Active; 'I' for Inactive)
REMARK    1  A    between atoms: _1  and  _3
REMARK    2  A    between atoms: _3  and  _4
REMARK    3  A    between atoms: _3  and  _6
REMARK    4  A    between atoms: _6  and  _7
REMARK    5  A    between atoms: _7  and  _8
REMARK    6  A    between atoms: _8  and  _9
REMARK    7  A    between atoms: _19  and  _20
REMARK    8  A    between atoms: _25  and  _27
REMARK    9  A    between atoms: _27  and  _28
REMARK   10  A    between atoms: _27  and  _30
REMARK   11  A    between atoms: _30  and  _31
REMARK   12  A    between atoms: _31  and  _32
REMARK   13  A    between atoms: _35  and  _37
REMARK   14  A    between atoms: _37  and  _38
REMARK   15  A    between atoms: _37  and  _40
REMARK   16  A    between atoms: _43  and  _45
REMARK   17  A    between atoms: _45  and  _46
REMARK   18  A    between atoms: _45  and  _48
REMARK   19  A    between atoms: _48  and  _49
REMARK   20  A    between atoms: _49  and  _50
REMARK   21  A    between atoms: _50  and  _51
REMARK   22  A    between atoms: _60  and  _62
REMARK   23  A    between atoms: _62  and  _63
REMARK   24  A    between atoms: _62  and  _65
REMARK   25  A    between atoms: _65  and  _66
REMARK   26  A    between atoms: _71  and  _73
REMARK   27  A    between atoms: _73  and  _74
REMARK   28  A    between atoms: _77  and  _79
REMARK   29  A    between atoms: _79  and  _80
REMARK   30  A    between atoms: _79  and  _82
REMARK   31  A    between atoms: _82  and  _83
REMARK   32  A    between atoms: _89  and  _91
REMARK   33  A    between atoms: _91  and  _92
REMARK   34  A    between atoms: _91  and  _94
REMARK   35  A    between atoms: _97  and  _99
REMARK   36  A    between atoms: _99  and  _100
REMARK   37  A    between atoms: _99  and  _102
REMARK   38  A    between atoms: _102  and  _103
REMARK   39  A    between atoms: _105  and  _107
REMARK   40  A    between atoms: _107  and  _108
REMARK   41  A    between atoms: _107  and  _110
REMARK   42  A    between atoms: _110  and  _111
REMARK   43  A    between atoms: _111  and  _112
REMARK   44  A    between atoms: _112  and  _113
REMARK   45  A    between atoms: _113  and  _114
REMARK   46  A    between atoms: _118  and  _120
REMARK   47  A    between atoms: _120  and  _121
REMARK   48  A    between atoms: _120  and  _123
REMARK   49  A    between atoms: _123  and  _124
REMARK   50  A    between atoms: _127  and  _129
REMARK   51  A    between atoms: _129  and  _130
REMARK   52  A    between atoms: _132  and  _134
REMARK   53  A    between atoms: _134  and  _135
REMARK   54  A    between atoms: _134  and  _137
REMARK   55  A    between atoms: _137  and  _138
REMARK   56  A    between atoms: _148  and  _150
REMARK   57  A    between atoms: _150  and  _151
REMARK   58  A    between atoms: _154  and  _156
REMARK   59  A    between atoms: _156  and  _157
REMARK   60  A    between atoms: _156  and  _159
REMARK   61  A    between atoms: _159  and  _160
REMARK   62  A    between atoms: _166  and  _168
REMARK   63  A    between atoms: _168  and  _169
REMARK   64  A    between atoms: _168  and  _171
REMARK   65  A    between atoms: _173  and  _175
REMARK   66  A    between atoms: _175  and  _176
REMARK   67  A    between atoms: _175  and  _178
REMARK   68  A    between atoms: _178  and  _179
REMARK   69  A    between atoms: _181  and  _183
REMARK   70  A    between atoms: _183  and  _184
REMARK   71  A    between atoms: _186  and  _188
REMARK   72  A    between atoms: _188  and  _189
REMARK   73  A    between atoms: _191  and  _193
REMARK   74  A    between atoms: _193  and  _194
REMARK   75  A    between atoms: _193  and  _196
REMARK   76  A    between atoms: _196  and  _197
REMARK   77  A    between atoms: _200  and  _202
REMARK   78  A    between atoms: _202  and  _203
REMARK   79  A    between atoms: _202  and  _205
REMARK   80  A    between atoms: _205  and  _206
REMARK   81  A    between atoms: _206  and  _207
REMARK   82  A    between atoms: _212  and  _214
REMARK   83  A    between atoms: _214  and  _215
REMARK   84  A    between atoms: _214  and  _217
REMARK   85  A    between atoms: _217  and  _218
REMARK   86  A    between atoms: _218  and  _219
REMARK   87  A    between atoms: _219  and  _220
REMARK   88  A    between atoms: _229  and  _231
REMARK   89  A    between atoms: _231  and  _232
REMARK   90  A    between atoms: _231  and  _234
REMARK   91  A    between atoms: _234  and  _235
REMARK   92  A    between atoms: _238  and  _240
REMARK   93  A    between atoms: _240  and  _241
REMARK   94  A    between atoms: _240  and  _243
REMARK   95  A    between atoms: _243  and  _244
REMARK   96  A    between atoms: _244  and  _245
REMARK   97  A    between atoms: _245  and  _246
REMARK   98  A    between atoms: _255  and  _257
REMARK   99  A    between atoms: _257  and  _258
REMARK  100  A    between atoms: _260  and  _262
REMARK  101  A    between atoms: _262  and  _263
REMARK  102  A    between atoms: _262  and  _265
REMARK  103  A    between atoms: _265  and  _266
REMARK  104  A    between atoms: _271  and  _272
REMARK  105  A    between atoms: _274  and  _276
REMARK  106  A    between atoms: _276  and  _277
REMARK  107  A    between atoms: _276  and  _279
REMARK  108  A    between atoms: _279  and  _280
REMARK  109  A    between atoms: _283  and  _285
REMARK  110  A    between atoms: _285  and  _286
REMARK  111  A    between atoms: _285  and  _288
REMARK  112  A    between atoms: _288  and  _289
REMARK  113  A    between atoms: _289  and  _290
REMARK  114  A    between atoms: _290  and  _291
REMARK  115  A    between atoms: _300  and  _302
REMARK  116  A    between atoms: _302  and  _303
REMARK  117  A    between atoms: _302  and  _305
REMARK  118  A    between atoms: _305  and  _306
REMARK  119  A    between atoms: _309  and  _311
REMARK  120  A    between atoms: _311  and  _312
REMARK  121  A    between atoms: _311  and  _314
REMARK  122  A    between atoms: _314  and  _315
REMARK  123  A    between atoms: _320  and  _322
REMARK  124  A    between atoms: _322  and  _323
REMARK  125  A    between atoms: _322  and  _325
REMARK  126  A    between atoms: _325  and  _326
REMARK  127  A    between atoms: _329  and  _331
REMARK  128  A    between atoms: _331  and  _332
REMARK  129  A    between atoms: _331  and  _334
REMARK  130  A    between atoms: _334  and  _335
REMARK  131  A    between atoms: _338  and  _340
REMARK  132  A    between atoms: _340  and  _341
REMARK  133  A    between atoms: _340  and  _343
REMARK  134  A    between atoms: _343  and  _344
REMARK  135  A    between atoms: _344  and  _345
REMARK  136  A    between atoms: _348  and  _350
REMARK  137  A    between atoms: _350  and  _351
REMARK  138  A    between atoms: _350  and  _353
REMARK  139  A    between atoms: _353  and  _354
REMARK  140  A    between atoms: _354  and  _355
REMARK  141  A    between atoms: _360  and  _362
REMARK  142  A    between atoms: _362  and  _363
REMARK  143  A    between atoms: _365  and  _367
REMARK  144  A    between atoms: _367  and  _368
REMARK  145  A    between atoms: _367  and  _370
REMARK  146  A    between atoms: _370  and  _371
REMARK  147  A    between atoms: _381  and  _383
REMARK  148  A    between atoms: _383  and  _384
REMARK  149  A    between atoms: _387  and  _389
REMARK  150  A    between atoms: _389  and  _390
REMARK  151  A    between atoms: _393  and  _395
REMARK  152  A    between atoms: _395  and  _396
REMARK  153  A    between atoms: _398  and  _400
REMARK  154  A    between atoms: _400  and  _401
REMARK  155  A    between atoms: _403  and  _405
REMARK  156  A    between atoms: _405  and  _406
REMARK  157  A    between atoms: _408  and  _410
REMARK  158  A    between atoms: _410  and  _411
REMARK  159  A    between atoms: _410  and  _413
REMARK  160  A    between atoms: _413  and  _414
REMARK  161  A    between atoms: _419  and  _421
REMARK  162  A    between atoms: _421  and  _422
REMARK  163  A    between atoms: _421  and  _424
REMARK  164  A    between atoms: _424  and  _425
REMARK  165  A    between atoms: _427  and  _429
REMARK  166  A    between atoms: _429  and  _430
REMARK  167  A    between atoms: _429  and  _432
REMARK  168  A    between atoms: _432  and  _433
REMARK  169  A    between atoms: _436  and  _438
REMARK  170  A    between atoms: _438  and  _439
REMARK  171  A    between atoms: _438  and  _441
REMARK  172  A    between atoms: _441  and  _442
REMARK  173  A    between atoms: _442  and  _443
REMARK  174  A    between atoms: _443  and  _444
REMARK  175  A    between atoms: _453  and  _455
REMARK  176  A    between atoms: _455  and  _456
REMARK  177  A    between atoms: _455  and  _458
REMARK  178  A    between atoms: _458  and  _459
REMARK  179  A    between atoms: _465  and  _467
REMARK  180  A    between atoms: _467  and  _468
REMARK  181  A    between atoms: _467  and  _470
REMARK  182  A    between atoms: _470  and  _471
REMARK  183  A    between atoms: _471  and  _472
REMARK  184  A    between atoms: _472  and  _473
REMARK  185  A    between atoms: _473  and  _474
REMARK  186  A    between atoms: _478  and  _480
REMARK  187  A    between atoms: _480  and  _481
REMARK  188  A    between atoms: _480  and  _483
REMARK  189  A    between atoms: _483  and  _484
REMARK  190  A    between atoms: _484  and  _485
REMARK  191  A    between atoms: _490  and  _492
REMARK  192  A    between atoms: _492  and  _493
REMARK  193  A    between atoms: _492  and  _495
REMARK  194  A    between atoms: _495  and  _496
REMARK  195  A    between atoms: _499  and  _501
REMARK  196  A    between atoms: _501  and  _502
REMARK  197  A    between atoms: _501  and  _504
REMARK  198  A    between atoms: _504  and  _505
REMARK  199  A    between atoms: _508  and  _510
REMARK  200  A    between atoms: _510  and  _511
REMARK  201  A    between atoms: _514  and  _516
REMARK  202  A    between atoms: _516  and  _517
REMARK  203  A    between atoms: _516  and  _519
REMARK  204  A    between atoms: _519  and  _520
REMARK  205  A    between atoms: _523  and  _525
REMARK  206  A    between atoms: _525  and  _526
REMARK  207  A    between atoms: _525  and  _528
REMARK  208  A    between atoms: _531  and  _533
REMARK  209  A    between atoms: _533  and  _534
REMARK  210  A    between atoms: _536  and  _538
REMARK  211  A    between atoms: _538  and  _539
REMARK  212  A    between atoms: _538  and  _541
REMARK  213  A    between atoms: _541  and  _542
REMARK  214  A    between atoms: _544  and  _546
REMARK  215  A    between atoms: _546  and  _547
REMARK  216  A    between atoms: _546  and  _549
REMARK  217  A    between atoms: _549  and  _550
REMARK  218  A    between atoms: _556  and  _558
REMARK  219  A    between atoms: _558  and  _559
REMARK  220  A    between atoms: _558  and  _561
REMARK  221  A    between atoms: _561  and  _562
REMARK  222  A    between atoms: _565  and  _567
REMARK  223  A    between atoms: _567  and  _568
REMARK  224  A    between atoms: _570  and  _572
REMARK  225  A    between atoms: _572  and  _573
REMARK  226  A    between atoms: _575  and  _577
REMARK  227  A    between atoms: _577  and  _578
REMARK  228  A    between atoms: _577  and  _580
REMARK  229  A    between atoms: _580  and  _581
REMARK  230  A    between atoms: _586  and  _587
REMARK  231  A    between atoms: _589  and  _591
REMARK  232  A    between atoms: _591  and  _592
REMARK  233  A    between atoms: _594  and  _596
REMARK  234  A    between atoms: _596  and  _597
REMARK  235  A    between atoms: _596  and  _599
REMARK  236  A    between atoms: _599  and  _600
REMARK  237  A    between atoms: _606  and  _608
REMARK  238  A    between atoms: _608  and  _609
REMARK  239  A    between atoms: _608  and  _611
REMARK  240  A    between atoms: _611  and  _612
REMARK  241  A    between atoms: _615  and  _617
REMARK  242  A    between atoms: _617  and  _618
REMARK  243  A    between atoms: _617  and  _620
REMARK  244  A    between atoms: _620  and  _621
REMARK  245  A    between atoms: _621  and  _622
REMARK  246  A    between atoms: _627  and  _629
REMARK  247  A    between atoms: _629  and  _630
REMARK  248  A    between atoms: _633  and  _635
REMARK  249  A    between atoms: _635  and  _636
REMARK  250  A    between atoms: _638  and  _640
REMARK  251  A    between atoms: _640  and  _641
REMARK  252  A    between atoms: _640  and  _643
REMARK  253  A    between atoms: _643  and  _644
REMARK  254  A    between atoms: _644  and  _645
REMARK  255  A    between atoms: _648  and  _650
REMARK  256  A    between atoms: _650  and  _651
REMARK  257  A    between atoms: _650  and  _653
REMARK  258  A    between atoms: _653  and  _654
REMARK  259  A    between atoms: _657  and  _659
REMARK  260  A    between atoms: _659  and  _660
REMARK  261  A    between atoms: _659  and  _662
REMARK  262  A    between atoms: _662  and  _663
REMARK  263  A    between atoms: _663  and  _664
REMARK  264  A    between atoms: _664  and  _665
REMARK  265  A    between atoms: _674  and  _676
REMARK  266  A    between atoms: _676  and  _677
REMARK  267  A    between atoms: _676  and  _679
REMARK  268  A    between atoms: _679  and  _680
REMARK  269  A    between atoms: _685  and  _686
REMARK  270  A    between atoms: _688  and  _690
REMARK  271  A    between atoms: _690  and  _691
REMARK  272  A    between atoms: _693  and  _695
REMARK  273  A    between atoms: _695  and  _696
REMARK  274  A    between atoms: _695  and  _698
REMARK  275  A    between atoms: _698  and  _699
REMARK  276  A    between atoms: _705  and  _707
REMARK  277  A    between atoms: _707  and  _708
REMARK  278  A    between atoms: _707  and  _710
REMARK  279  A    between atoms: _710  and  _711
REMARK  280  A    between atoms: _714  and  _716
REMARK  281  A    between atoms: _716  and  _717
REMARK  282  A    between atoms: _716  and  _719
REMARK  283  A    between atoms: _719  and  _720
REMARK  284  A    between atoms: _720  and  _721
REMARK  285  A    between atoms: _726  and  _728
REMARK  286  A    between atoms: _728  and  _729
REMARK  287  A    between atoms: _728  and  _731
REMARK  288  A    between atoms: _731  and  _732
REMARK  289  A    between atoms: _732  and  _733
REMARK  290  A    between atoms: _733  and  _734
REMARK  291  A    between atoms: _734  and  _735
REMARK                            x       y       z     vdW  Elec       q    Type
REMARK                         _______ _______ _______ _____ _____    ______ ____
ROOT
ATOM      1  C   GLY A   5      36.658 -12.057 188.650  0.00  0.00    +0.243 C 
ATOM      2  O   GLY A   5      37.622 -11.318 188.460  0.00  0.00    -0.273 OA
ATOM      3  N   GLY A   6      35.441 -11.800 188.180  0.00  0.00    -0.295 N 
ATOM      4  H   GLY A   6      34.683 -12.490 188.356  0.00  0.00    +0.150 HD
ENDROOT
BRANCH   3   5
ATOM      5  CA  GLY A   6      35.125 -10.596 187.431  0.00  0.00    +0.176 C 
BRANCH   5   6
ATOM      6  C   GLY A   6      35.421  -9.321 188.211  0.00  0.00    +0.243 C 
ATOM      7  N   GLY A   7      35.427  -9.431 189.534  0.00  0.00    -0.295 N 
ATOM      8  H   GLY A   7      35.153 -10.335 189.968  0.00  0.00    +0.150 HD
ATOM      9  O   GLY A   6      35.618  -8.251 187.627  0.00  0.00    -0.273 OA
BRANCH   7  10
ATOM     10  CA  GLY A   7      35.806  -8.322 190.390  0.00  0.00    +0.176 C 
BRANCH  10  11
ATOM     11  C   GLY A   7      37.285  -8.031 190.264  0.00  0.00    +0.243 C 
ATOM     12  O   GLY A   7      37.703  -6.877 190.247  0.00  0.00    -0.273 OA
ATOM     13  N   HIS A   8      38.088  -9.088 190.180  0.00  0.00    -0.297 N 
ATOM     14  H   HIS A   8      37.692 -10.044 190.289  0.00  0.00    +0.150 HD
BRANCH  13  15
ATOM     15  CA  HIS A   8      39.518  -8.923 189.937  0.00  0.00    +0.155 C 
BRANCH  15  16
ATOM     16  C   HIS A   8      39.776  -8.262 188.580  0.00  0.00    +0.241 C 
ATOM     17  O   HIS A   8      40.634  -7.378 188.465  0.00  0.00    -0.273 OA
ATOM     18  N   SER A   9      39.034  -8.684 187.556  0.00  0.00    -0.295 N 
ATOM     19  H   SER A   9      38.308  -9.411 187.716  0.00  0.00    +0.150 HD
BRANCH  18  20
ATOM     20  CA  SER A   9      39.225  -8.140 186.209  0.00  0.00    +0.178 C 
BRANCH  20  21
ATOM     21  C   SER A   9      38.832  -6.657 186.062  0.00  0.00    +0.243 C 
ATOM     22  N   LEU A  10      37.820  -6.216 186.806  0.00  0.00    -0.298 N 
ATOM     23  H   LEU A  10      37.291  -6.889 187.397  0.00  0.00    +0.150 HD
ATOM     24  O   SER A   9      39.440  -5.927 185.275  0.00  0.00    -0.273 OA
BRANCH  22  25
ATOM     25  CA  LEU A  10      37.437  -4.802 186.809  0.00  0.00    +0.137 C 
BRANCH  25  26
ATOM     26  C   LEU A  10      38.583  -3.945 187.326  0.00  0.00    +0.227 C 
ATOM     27  O   LEU A  10      38.897  -2.898 186.772  0.00  0.00    -0.286 OA
ENDBRANCH  25  26
BRANCH  25  28
ATOM     28  CB  LEU A  10      36.209  -4.566 187.680  0.00  0.00    +0.028 C 
BRANCH  28  29
ATOM     29  CG  LEU A  10      34.861  -4.678 186.988  0.00  0.00    +0.002 C 
ATOM     30  CD2 LEU A  10      33.763  -4.387 187.990  0.00  0.00    +0.000 C 
ATOM     31  CD1 LEU A  10      34.785  -3.736 185.798  0.00  0.00    +0.000 C 
ENDBRANCH  28  29
ENDBRANCH  25  28
ENDBRANCH  22  25
ENDBRANCH  20  21
BRANCH  20  32
ATOM     32  CB  SER A   9      38.450  -8.984 185.193  0.00  0.00    +0.166 C 
BRANCH  32  33
ATOM     33  OG  SER A   9      39.019 -10.280 185.115  0.00  0.00    -0.380 OA
ATOM     34  H   SER A   9      39.964 -10.208 184.829  0.00  0.00    +0.211 HD
ENDBRANCH  32  33
ENDBRANCH  20  32
ENDBRANCH  18  20
ENDBRANCH  15  16
BRANCH  15  35
ATOM     35  CB  HIS A   8      40.241 -10.272 190.024  0.00  0.00    +0.076 C 
BRANCH  35  36
ATOM     36  CG  HIS A   8      41.729 -10.161 189.935  0.00  0.00    +0.082 A 
ATOM     37  CD2 HIS A   8      42.669 -10.006 190.899  0.00  0.00    +0.115 A 
ATOM     38  NE2 HIS A   8      43.888  -9.943 190.267  0.00  0.00    -0.221 NA
ATOM     39  CE1 HIS A   8      43.704 -10.055 188.963  0.00  0.00    +0.199 A 
ATOM     40  ND1 HIS A   8      42.409 -10.186 188.735  0.00  0.00    -0.227 NA
ENDBRANCH  35  36
ENDBRANCH  15  35
ENDBRANCH  13  15
ENDBRANCH  10  11
ENDBRANCH   7  10
ENDBRANCH   5   6
ENDBRANCH   3   5
BRANCH   1  41
ATOM     41  CA  GLY A   5      36.797 -13.326 189.468  0.00  0.00    +0.176 C 
BRANCH  41  44
ATOM     42  C   ALA A   4      37.041 -12.156 191.589  0.00  0.00    +0.241 C 
ATOM     43  O   ALA A   4      36.086 -11.418 191.359  0.00  0.00    -0.273 OA
ATOM     44  N   GLY A   5      37.465 -13.093 190.743  0.00  0.00    -0.295 N 
ATOM     45  H   GLY A   5      38.291 -13.671 190.997  0.00  0.00    +0.150 HD
BRANCH  42  46
ATOM     46  CA  ALA A   4      37.808 -12.024 192.891  0.00  0.00    +0.149 C 
ATOM     47  CB  ALA A   4      37.240 -12.983 193.935  0.00  0.00    +0.031 C 
BRANCH  46  50
ATOM     48  C   ALA A   3      38.852 -10.042 193.810  0.00  0.00    +0.241 C 
ATOM     49  O   ALA A   3      39.986 -10.490 193.635  0.00  0.00    -0.273 OA
ATOM     50  N   ALA A   4      37.756 -10.661 193.393  0.00  0.00    -0.297 N 
ATOM     51  H   ALA A   4      36.844 -10.163 193.426  0.00  0.00    +0.150 HD
BRANCH  48  52
ATOM     52  CA  ALA A   3      38.643  -8.728 194.530  0.00  0.00    +0.149 C 
ATOM     53  CB  ALA A   3      39.624  -7.659 194.030  0.00  0.00    +0.031 C 
BRANCH  52  56
ATOM     54  C   TRP A   2      37.942  -8.633 196.872  0.00  0.00    +0.241 C 
ATOM     55  O   TRP A   2      37.009  -7.858 196.641  0.00  0.00    -0.273 OA
ATOM     56  N   ALA A   3      38.825  -9.001 195.953  0.00  0.00    -0.297 N 
ATOM     57  H   ALA A   3      39.682  -9.505 196.258  0.00  0.00    +0.150 HD
BRANCH  54  58
ATOM     58  CA  TRP A   2      38.147  -9.205 198.270  0.00  0.00    +0.153 C 
BRANCH  58  60
ATOM     59  C   GLY A   1      38.711  -7.052 199.266  0.00  0.00    +0.240 C 
ATOM     60  N   TRP A   2      38.021  -8.186 199.313  0.00  0.00    -0.297 N 
ATOM     61  H   TRP A   2      37.375  -8.354 200.111  0.00  0.00    +0.150 HD
ATOM     62  O   GLY A   1      39.536  -6.806 198.394  0.00  0.00    -0.274 OA
BRANCH  59  63
ATOM     63  CA  GLY A   1      38.439  -6.033 200.351  0.00  0.00    +0.169 C 
BRANCH  63  64
ATOM     64  N   GLY A   1      38.719  -4.705 199.841  0.00  0.00    -0.236 NA
ATOM     65  H   GLY A   1      39.028  -4.594 198.854  0.00  0.00    +0.142 HD
ENDBRANCH  63  64
ENDBRANCH  59  63
ENDBRANCH  58  60
BRANCH  58  66
ATOM     66  CB  TRP A   2      37.133 -10.327 198.476  0.00  0.00    +0.057 C 
BRANCH  66  67
ATOM     67  CG  TRP A   2      37.406 -11.285 199.565  0.00  0.00    -0.002 A 
ATOM     68  CD1 TRP A   2      36.804 -11.330 200.802  0.00  0.00    +0.068 A 
ATOM     69  NE1 TRP A   2      37.293 -12.390 201.521  0.00  0.00    -0.352 N 
ATOM     70  HE1 TRP A   2      36.999 -12.653 202.483  0.00  0.00    +0.166 HD
ATOM     71  CE2 TRP A   2      38.233 -13.049 200.768  0.00  0.00    +0.056 A 
ATOM     72  CZ2 TRP A   2      39.010 -14.174 201.075  0.00  0.00    +0.017 A 
ATOM     73  CH2 TRP A   2      39.884 -14.623 200.114  0.00  0.00    +0.001 A 
ATOM     74  CZ3 TRP A   2      40.000 -13.980 198.867  0.00  0.00    +0.000 A 
ATOM     75  CE3 TRP A   2      39.229 -12.859 198.565  0.00  0.00    +0.001 A 
ATOM     76  CD2 TRP A   2      38.329 -12.379 199.527  0.00  0.00    +0.013 A 
ENDBRANCH  66  67
ENDBRANCH  58  66
ENDBRANCH  54  58
ENDBRANCH  52  56
ENDBRANCH  48  52
ENDBRANCH  46  50
ENDBRANCH  42  46
ENDBRANCH  41  44
ENDBRANCH   1  41
TORSDOF 28
REMARK  Name = ../refined-set-2016/4qij/4qij_pocket.pdb
REMARK  291 active torsions:
REMARK  status: ('A' for Active; 'I' for Inactive)
REMARK    1  A    between atoms: _1  and  _3
REMARK    2  A    between atoms: _3  and  _4
REMARK    3  A    between atoms: _3  and  _6
REMARK    4  A    between atoms: _6  and  _7
REMARK    5  A    between atoms: _7  and  _8
REMARK    6  A    between atoms: _8  and  _9
REMARK    7  A    between atoms: _19  and  _20
REMARK    8  A    between atoms: _25  and  _27
REMARK    9  A    between atoms: _27  and  _28
REMARK   10  A    between atoms: _27  and  _30
REMARK   11  A    between atoms: _30  and  _31
REMARK   12  A    between atoms: _31  and  _32
REMARK   13  A    between atoms: _35  and  _37
REMARK   14  A    between atoms: _37  and  _38
REMARK   15  A    between atoms: _37  and  _40
REMARK   16  A    between atoms: _43  and  _45
REMARK   17  A    between atoms: _45  and  _46
REMARK   18  A    between atoms: _45  and  _48
REMARK   19  A    between atoms: _48  and  _49
REMARK   20  A    between atoms: _49  and  _50
REMARK   21  A    between atoms: _50  and  _51
REMARK   22  A    between atoms: _60  and  _62
REMARK   23  A    between atoms: _62  and  _63
REMARK   24  A    between atoms: _62  and  _65
REMARK   25  A    between atoms: _65  and  _66
REMARK   26  A    between atoms: _71  and  _73
REMARK   27  A    between atoms: _73  and  _74
REMARK   28  A    between atoms: _77  and  _79
REMARK   29  A    between atoms: _79  and  _80
REMARK   30  A    between atoms: _79  and  _82
REMARK   31  A    between atoms: _82  and  _83
REMARK   32  A    between atoms: _89  and  _91
REMARK   33  A    between atoms: _91  and  _92
REMARK   34  A    between atoms: _91  and  _94
REMARK   35  A    between atoms: _97  and  _99
REMARK   36  A    between atoms: _99  and  _100
REMARK   37  A    between atoms: _99  and  _102
REMARK   38  A    between atoms: _102  and  _103
REMARK   39  A    between atoms: _105  and  _107
REMARK   40  A    between atoms: _107  and  _108
REMARK   41  A    between atoms: _107  and  _110
REMARK   42  A    between atoms: _110  and  _111
REMARK   43  A    between atoms: _111  and  _112
REMARK   44  A    between atoms: _112  and  _113
REMARK   45  A    between atoms: _113  and  _114
REMARK   46  A    between atoms: _118  and  _120
REMARK   47  A    between atoms: _120  and  _121
REMARK   48  A    between atoms: _120  and  _123
REMARK   49  A    between atoms: _123  and  _124
REMARK   50  A    between atoms: _127  and  _129
REMARK   51  A    between atoms: _129  and  _130
REMARK   52  A    between atoms: _132  and  _134
REMARK   53  A    between atoms: _134  and  _135
REMARK   54  A    between atoms: _134  and  _137
REMARK   55  A    between atoms: _137  and  _138
REMARK   56  A    between atoms: _148  and  _150
REMARK   57  A    between atoms: _150  and  _151
REMARK   58  A    between atoms: _154  and  _156
REMARK   59  A    between atoms: _156  and  _157
REMARK   60  A    between atoms: _156  and  _159
REMARK   61  A    between atoms: _159  and  _160
REMARK   62  A    between atoms: _166  and  _168
REMARK   63  A    between atoms: _168  and  _169
REMARK   64  A    between atoms: _168  and  _171
REMARK   65  A    between atoms: _173  and  _175
REMARK   66  A    between atoms: _175  and  _176
REMARK   67  A    between atoms: _175  and  _178
REMARK   68  A    between atoms: _178  and  _179
REMARK   69  A    between atoms: _181  and  _183
REMARK   70  A    between atoms: _183  and  _184
REMARK   71  A    between atoms: _186  and  _188
REMARK   72  A    between atoms: _188  and  _189
REMARK   73  A    between atoms: _191  and  _193
REMARK   74  A    between atoms: _193  and  _194
REMARK   75  A    between atoms: _193  and  _196
REMARK   76  A    between atoms: _196  and  _197
REMARK   77  A    between atoms: _200  and  _202
REMARK   78  A    between atoms: _202  and  _203
REMARK   79  A    between atoms: _202  and  _205
REMARK   80  A    between atoms: _205  and  _206
REMARK   81  A    between atoms: _206  and  _207
REMARK   82  A    between atoms: _212  and  _214
REMARK   83  A    between atoms: _214  and  _215
REMARK   84  A    between atoms: _214  and  _217
REMARK   85  A    between atoms: _217  and  _218
REMARK   86  A    between atoms: _218  and  _219
REMARK   87  A    between atoms: _219  and  _220
REMARK   88  A    between atoms: _229  and  _231
REMARK   89  A    between atoms: _231  and  _232
REMARK   90  A    between atoms: _231  and  _234
REMARK   91  A    between atoms: _234  and  _235
REMARK   92  A    between atoms: _238  and  _240
REMARK   93  A    between atoms: _240  and  _241
REMARK   94  A    between atoms: _240  and  _243
REMARK   95  A    between atoms: _243  and  _244
REMARK   96  A    between atoms: _244  and  _245
REMARK   97  A    between atoms: _245  and  _246
REMARK   98  A    between atoms: _255  and  _257
REMARK   99  A    between atoms: _257  and  _258
REMARK  100  A    between atoms: _260  and  _262
REMARK  101  A    between atoms: _262  and  _263
REMARK  102  A    between atoms: _262  and  _265
REMARK  103  A    between atoms: _265  and  _266
REMARK  104  A    between atoms: _271  and  _272
REMARK  105  A    between atoms: _274  and  _276
REMARK  106  A    between atoms: _276  and  _277
REMARK  107  A    between atoms: _276  and  _279
REMARK  108  A    between atoms: _279  and  _280
REMARK  109  A    between atoms: _283  and  _285
REMARK  110  A    between atoms: _285  and  _286
REMARK  111  A    between atoms: _285  and  _288
REMARK  112  A    between atoms: _288  and  _289
REMARK  113  A    between atoms: _289  and  _290
REMARK  114  A    between atoms: _290  and  _291
REMARK  115  A    between atoms: _300  and  _302
REMARK  116  A    between atoms: _302  and  _303
REMARK  117  A    between atoms: _302  and  _305
REMARK  118  A    between atoms: _305  and  _306
REMARK  119  A    between atoms: _309  and  _311
REMARK  120  A    between atoms: _311  and  _312
REMARK  121  A    between atoms: _311  and  _314
REMARK  122  A    between atoms: _314  and  _315
REMARK  123  A    between atoms: _320  and  _322
REMARK  124  A    between atoms: _322  and  _323
REMARK  125  A    between atoms: _322  and  _325
REMARK  126  A    between atoms: _325  and  _326
REMARK  127  A    between atoms: _329  and  _331
REMARK  128  A    between atoms: _331  and  _332
REMARK  129  A    between atoms: _331  and  _334
REMARK  130  A    between atoms: _334  and  _335
REMARK  131  A    between atoms: _338  and  _340
REMARK  132  A    between atoms: _340  and  _341
REMARK  133  A    between atoms: _340  and  _343
REMARK  134  A    between atoms: _343  and  _344
REMARK  135  A    between atoms: _344  and  _345
REMARK  136  A    between atoms: _348  and  _350
REMARK  137  A    between atoms: _350  and  _351
REMARK  138  A    between atoms: _350  and  _353
REMARK  139  A    between atoms: _353  and  _354
REMARK  140  A    between atoms: _354  and  _355
REMARK  141  A    between atoms: _360  and  _362
REMARK  142  A    between atoms: _362  and  _363
REMARK  143  A    between atoms: _365  and  _367
REMARK  144  A    between atoms: _367  and  _368
REMARK  145  A    between atoms: _367  and  _370
REMARK  146  A    between atoms: _370  and  _371
REMARK  147  A    between atoms: _381  and  _383
REMARK  148  A    between atoms: _383  and  _384
REMARK  149  A    between atoms: _387  and  _389
REMARK  150  A    between atoms: _389  and  _390
REMARK  151  A    between atoms: _393  and  _395
REMARK  152  A    between atoms: _395  and  _396
REMARK  153  A    between atoms: _398  and  _400
REMARK  154  A    between atoms: _400  and  _401
REMARK  155  A    between atoms: _403  and  _405
REMARK  156  A    between atoms: _405  and  _406
REMARK  157  A    between atoms: _408  and  _410
REMARK  158  A    between atoms: _410  and  _411
REMARK  159  A    between atoms: _410  and  _413
REMARK  160  A    between atoms: _413  and  _414
REMARK  161  A    between atoms: _419  and  _421
REMARK  162  A    between atoms: _421  and  _422
REMARK  163  A    between atoms: _421  and  _424
REMARK  164  A    between atoms: _424  and  _425
REMARK  165  A    between atoms: _427  and  _429
REMARK  166  A    between atoms: _429  and  _430
REMARK  167  A    between atoms: _429  and  _432
REMARK  168  A    between atoms: _432  and  _433
REMARK  169  A    between atoms: _436  and  _438
REMARK  170  A    between atoms: _438  and  _439
REMARK  171  A    between atoms: _438  and  _441
REMARK  172  A    between atoms: _441  and  _442
REMARK  173  A    between atoms: _442  and  _443
REMARK  174  A    between atoms: _443  and  _444
REMARK  175  A    between atoms: _453  and  _455
REMARK  176  A    between atoms: _455  and  _456
REMARK  177  A    between atoms: _455  and  _458
REMARK  178  A    between atoms: _458  and  _459
REMARK  179  A    between atoms: _465  and  _467
REMARK  180  A    between atoms: _467  and  _468
REMARK  181  A    between atoms: _467  and  _470
REMARK  182  A    between atoms: _470  and  _471
REMARK  183  A    between atoms: _471  and  _472
REMARK  184  A    between atoms: _472  and  _473
REMARK  185  A    between atoms: _473  and  _474
REMARK  186  A    between atoms: _478  and  _480
REMARK  187  A    between atoms: _480  and  _481
REMARK  188  A    between atoms: _480  and  _483
REMARK  189  A    between atoms: _483  and  _484
REMARK  190  A    between atoms: _484  and  _485
REMARK  191  A    between atoms: _490  and  _492
REMARK  192  A    between atoms: _492  and  _493
REMARK  193  A    between atoms: _492  and  _495
REMARK  194  A    between atoms: _495  and  _496
REMARK  195  A    between atoms: _499  and  _501
REMARK  196  A    between atoms: _501  and  _502
REMARK  197  A    between atoms: _501  and  _504
REMARK  198  A    between atoms: _504  and  _505
REMARK  199  A    between atoms: _508  and  _510
REMARK  200  A    between atoms: _510  and  _511
REMARK  201  A    between atoms: _514  and  _516
REMARK  202  A    between atoms: _516  and  _517
REMARK  203  A    between atoms: _516  and  _519
REMARK  204  A    between atoms: _519  and  _520
REMARK  205  A    between atoms: _523  and  _525
REMARK  206  A    between atoms: _525  and  _526
REMARK  207  A    between atoms: _525  and  _528
REMARK  208  A    between atoms: _531  and  _533
REMARK  209  A    between atoms: _533  and  _534
REMARK  210  A    between atoms: _536  and  _538
REMARK  211  A    between atoms: _538  and  _539
REMARK  212  A    between atoms: _538  and  _541
REMARK  213  A    between atoms: _541  and  _542
REMARK  214  A    between atoms: _544  and  _546
REMARK  215  A    between atoms: _546  and  _547
REMARK  216  A    between atoms: _546  and  _549
REMARK  217  A    between atoms: _549  and  _550
REMARK  218  A    between atoms: _556  and  _558
REMARK  219  A    between atoms: _558  and  _559
REMARK  220  A    between atoms: _558  and  _561
REMARK  221  A    between atoms: _561  and  _562
REMARK  222  A    between atoms: _565  and  _567
REMARK  223  A    between atoms: _567  and  _568
REMARK  224  A    between atoms: _570  and  _572
REMARK  225  A    between atoms: _572  and  _573
REMARK  226  A    between atoms: _575  and  _577
REMARK  227  A    between atoms: _577  and  _578
REMARK  228  A    between atoms: _577  and  _580
REMARK  229  A    between atoms: _580  and  _581
REMARK  230  A    between atoms: _586  and  _587
REMARK  231  A    between atoms: _589  and  _591
REMARK  232  A    between atoms: _591  and  _592
REMARK  233  A    between atoms: _594  and  _596
REMARK  234  A    between atoms: _596  and  _597
REMARK  235  A    between atoms: _596  and  _599
REMARK  236  A    between atoms: _599  and  _600
REMARK  237  A    between atoms: _606  and  _608
REMARK  238  A    between atoms: _608  and  _609
REMARK  239  A    between atoms: _608  and  _611
REMARK  240  A    between atoms: _611  and  _612
REMARK  241  A    between atoms: _615  and  _617
REMARK  242  A    between atoms: _617  and  _618
REMARK  243  A    between atoms: _617  and  _620
REMARK  244  A    between atoms: _620  and  _621
REMARK  245  A    between atoms: _621  and  _622
REMARK  246  A    between atoms: _627  and  _629
REMARK  247  A    between atoms: _629  and  _630
REMARK  248  A    between atoms: _633  and  _635
REMARK  249  A    between atoms: _635  and  _636
REMARK  250  A    between atoms: _638  and  _640
REMARK  251  A    between atoms: _640  and  _641
REMARK  252  A    between atoms: _640  and  _643
REMARK  253  A    between atoms: _643  and  _644
REMARK  254  A    between atoms: _644  and  _645
REMARK  255  A    between atoms: _648  and  _650
REMARK  256  A    between atoms: _650  and  _651
REMARK  257  A    between atoms: _650  and  _653
REMARK  258  A    between atoms: _653  and  _654
REMARK  259  A    between atoms: _657  and  _659
REMARK  260  A    between atoms: _659  and  _660
REMARK  261  A    between atoms: _659  and  _662
REMARK  262  A    between atoms: _662  and  _663
REMARK  263  A    between atoms: _663  and  _664
REMARK  264  A    between atoms: _664  and  _665
REMARK  265  A    between atoms: _674  and  _676
REMARK  266  A    between atoms: _676  and  _677
REMARK  267  A    between atoms: _676  and  _679
REMARK  268  A    between atoms: _679  and  _680
REMARK  269  A    between atoms: _685  and  _686
REMARK  270  A    between atoms: _688  and  _690
REMARK  271  A    between atoms: _690  and  _691
REMARK  272  A    between atoms: _693  and  _695
REMARK  273  A    between atoms: _695  and  _696
REMARK  274  A    between atoms: _695  and  _698
REMARK  275  A    between atoms: _698  and  _699
REMARK  276  A    between atoms: _705  and  _707
REMARK  277  A    between atoms: _707  and  _708
REMARK  278  A    between atoms: _707  and  _710
REMARK  279  A    between atoms: _710  and  _711
REMARK  280  A    between atoms: _714  and  _716
REMARK  281  A    between atoms: _716  and  _717
REMARK  282  A    between atoms: _716  and  _719
REMARK  283  A    between atoms: _719  and  _720
REMARK  284  A    between atoms: _720  and  _721
REMARK  285  A    between atoms: _726  and  _728
REMARK  286  A    between atoms: _728  and  _729
REMARK  287  A    between atoms: _728  and  _731
REMARK  288  A    between atoms: _731  and  _732
REMARK  289  A    between atoms: _732  and  _733
REMARK  290  A    between atoms: _733  and  _734
REMARK  291  A    between atoms: _734  and  _735
REMARK                            x       y       z     vdW  Elec       q    Type
REMARK                         _______ _______ _______ _____ _____    ______ ____
ROOT
ATOM      1  C   ALA A   7      38.376 -22.298 187.611  0.00  0.00    +0.241 C 
ATOM      2  N   ASP A   8      38.233 -21.809 188.843  0.00  0.00    -0.297 N 
ATOM      3  H   ASP A   8      38.543 -20.839 189.055  0.00  0.00    +0.150 HD
ATOM      4  O   ALA A   7      38.060 -23.457 187.328  0.00  0.00    -0.273 OA
ENDROOT
BRANCH   1   5
ATOM      5  CA  ALA A   7      38.932 -21.354 186.526  0.00  0.00    +0.149 C 
ATOM      6  CB  ALA A   7      40.388 -21.674 186.207  0.00  0.00    +0.031 C 
BRANCH   5   8
ATOM      7  C   ASP A   6      37.622 -19.388 186.991  0.00  0.00    +0.241 C 
ATOM      8  N   ALA A   7      38.810 -19.958 186.916  0.00  0.00    -0.297 N 
ATOM      9  H   ALA A   7      39.663 -19.406 187.137  0.00  0.00    +0.150 HD
ATOM     10  O   ASP A   6      36.579 -20.027 186.847  0.00  0.00    -0.273 OA
BRANCH   7  11
ATOM     11  CA  ASP A   6      37.615 -17.884 187.260  0.00  0.00    +0.160 C 
BRANCH  11  14
ATOM     12  C   THR A   5      38.223 -18.197 189.629  0.00  0.00    +0.243 C 
ATOM     13  O   THR A   5      37.595 -19.259 189.707  0.00  0.00    -0.273 OA
ATOM     14  N   ASP A   6      38.321 -17.496 188.494  0.00  0.00    -0.296 N 
ATOM     15  H   ASP A   6      38.918 -16.645 188.482  0.00  0.00    +0.150 HD
BRANCH  12  16
ATOM     16  CA  THR A   5      38.939 -17.642 190.883  0.00  0.00    +0.176 C 
BRANCH  16  18
ATOM     17  C   GLN A   4      40.886 -16.242 190.366  0.00  0.00    +0.241 C 
ATOM     18  N   THR A   5      39.605 -16.349 190.714  0.00  0.00    -0.295 N 
ATOM     19  H   THR A   5      39.056 -15.480 190.872  0.00  0.00    +0.150 HD
ATOM     20  O   GLN A   4      41.574 -17.200 190.051  0.00  0.00    -0.273 OA
BRANCH  17  21
ATOM     21  CA  GLN A   4      41.471 -14.836 190.382  0.00  0.00    +0.149 C 
BRANCH  21  24
ATOM     22  C   LYS A   3      41.413 -14.158 192.685  0.00  0.00    +0.241 C 
ATOM     23  O   LYS A   3      40.210 -13.910 192.607  0.00  0.00    -0.273 OA
ATOM     24  N   GLN A   4      42.126 -14.603 191.656  0.00  0.00    -0.297 N 
ATOM     25  H   GLN A   4      43.145 -14.783 191.763  0.00  0.00    +0.150 HD
BRANCH  22  26
ATOM     26  CA  LYS A   3      42.156 -13.947 193.984  0.00  0.00    +0.149 C 
BRANCH  26  29
ATOM     27  C   PHE A   2      43.291 -12.043 194.910  0.00  0.00    +0.241 C 
ATOM     28  O   PHE A   2      44.246 -12.748 195.244  0.00  0.00    -0.273 OA
ATOM     29  N   LYS A   3      42.239 -12.527 194.262  0.00  0.00    -0.297 N 
ATOM     30  H   LYS A   3      41.477 -11.890 193.955  0.00  0.00    +0.150 HD
BRANCH  27  31
ATOM     31  CA  PHE A   2      43.277 -10.556 195.219  0.00  0.00    +0.153 C 
BRANCH  31  34
ATOM     32  C   ARG A   1      42.416 -10.060 197.441  0.00  0.00    +0.238 C 
ATOM     33  O   ARG A   1      41.275  -9.937 197.033  0.00  0.00    -0.274 OA
ATOM     34  N   PHE A   2      43.442 -10.342 196.648  0.00  0.00    -0.297 N 
ATOM     35  H   PHE A   2      44.394 -10.412 197.061  0.00  0.00    +0.150 HD
BRANCH  32  36
ATOM     36  CA  ARG A   1      42.719  -9.845 198.908  0.00  0.00    +0.145 C 
BRANCH  36  37
ATOM     37  N   ARG A   1      42.313  -8.475 199.211  0.00  0.00    -0.238 NA
ATOM     38  H   ARG A   1      41.447  -8.101 198.773  0.00  0.00    +0.142 HD
ENDBRANCH  36  37
BRANCH  36  39
ATOM     39  CB  ARG A   1      41.975 -10.881 199.760  0.00  0.00    +0.030 C 
BRANCH  39  40
ATOM     40  CG  ARG A   1      42.104 -10.676 201.261  0.00  0.00    +0.045 C 
BRANCH  40  41
ATOM     41  CD  ARG A   1      41.322 -11.736 202.022  0.00  0.00    +0.174 C 
BRANCH  41  42
ATOM     42  NE  ARG A   1      41.222 -11.350 203.420  0.00  0.00    -0.265 N 
ATOM     43  CZ  ARG A   1      42.097 -11.660 204.362  0.00  0.00    +0.342 C 
ATOM     44  NH2 ARG A   1      41.894 -11.222 205.593  0.00  0.00    -0.292 N 
ATOM     45 HH21 ARG A   1      42.572 -11.456 206.347  0.00  0.00    +0.255 HD
ATOM     46 HH22 ARG A   1      41.057 -10.644 205.808  0.00  0.00    +0.255 HD
ATOM     47  NH1 ARG A   1      43.149 -12.416 204.081  0.00  0.00    -0.292 N 
ATOM     48 HH11 ARG A   1      43.832 -12.655 204.828  0.00  0.00    +0.255 HD
ATOM     49 HH12 ARG A   1      43.291 -12.770 203.114  0.00  0.00    +0.255 HD
ATOM     50  HE  ARG A   1      40.396 -10.785 203.702  0.00  0.00    +0.259 HD
ENDBRANCH  41  42
ENDBRANCH  40  41
ENDBRANCH  39  40
ENDBRANCH  36  39
ENDBRANCH  32  36
ENDBRANCH  31  34
BRANCH  31  51
ATOM     51  CB  PHE A   2      44.383  -9.835 194.433  0.00  0.00    +0.055 C 
BRANCH  51  52
ATOM     52  CG  PHE A   2      44.382  -8.340 194.618  0.00  0.00    -0.020 A 
ATOM     53  CD2 PHE A   2      44.968  -7.764 195.731  0.00  0.00    -0.004 A 
ATOM     54  CE2 PHE A   2      44.975  -6.385 195.899  0.00  0.00    -0.000 A 
ATOM     55  CZ  PHE A   2      44.392  -5.574 194.949  0.00  0.00    -0.000 A 
ATOM     56  CE1 PHE A   2      43.808  -6.134 193.833  0.00  0.00    -0.000 A 
ATOM     57  CD1 PHE A   2      43.808  -7.510 193.667  0.00  0.00    -0.004 A 
ENDBRANCH  51  52
ENDBRANCH  31  51
ENDBRANCH  27  31
ENDBRANCH  26  29
BRANCH  26  58
ATOM     58  CB  LYS A   3      41.455 -14.688 195.129  0.00  0.00    +0.029 C 
BRANCH  58  59
ATOM     59  CG  LYS A   3      41.554 -16.210 195.071  0.00  0.00    +0.000 C 
BRANCH  59  60
ATOM     60  CD  LYS A   3      40.736 -16.850 196.201  0.00  0.00    -0.024 C 
BRANCH  60  61
ATOM     61  CE  LYS A   3      40.991 -18.362 196.308  0.00  0.00    -0.086 C 
BRANCH  61  62
ATOM     62  NZ  LYS A   3      42.441 -18.619 196.639  0.00  0.00    +0.380 N 
ATOM     63  HZ1 LYS A   3      42.674 -18.167 197.546  0.00  0.00    -0.089 HD
ATOM     64  HZ2 LYS A   3      42.603 -19.644 196.709  0.00  0.00    -0.089 HD
ATOM     65  HZ3 LYS A   3      43.042 -18.222 195.889  0.00  0.00    -0.089 HD
ENDBRANCH  61  62
ENDBRANCH  60  61
ENDBRANCH  59  60
ENDBRANCH  58  59
ENDBRANCH  26  58
ENDBRANCH  22  26
ENDBRANCH  21  24
BRANCH  21  66
ATOM     66  CB  GLN A   4      42.438 -14.623 189.211  0.00  0.00    +0.039 C 
BRANCH  66  67
ATOM     67  CG  GLN A   4      41.783 -14.763 187.834  0.00  0.00    +0.087 C 
BRANCH  67  68
ATOM     68  CD  GLN A   4      40.375 -14.162 187.761  0.00  0.00    +0.219 C 
ATOM     69  OE1 GLN A   4      39.388 -14.807 188.121  0.00  0.00    -0.275 OA
ATOM     70  NE2 GLN A   4      40.282 -12.920 187.292  0.00  0.00    -0.329 N 
ATOM     71 HE21 GLN A   4      39.352 -12.460 187.219  0.00  0.00    +0.145 HD
ATOM     72 HE22 GLN A   4      41.139 -12.409 186.999  0.00  0.00    +0.145 HD
ENDBRANCH  67  68
ENDBRANCH  66  67
ENDBRANCH  21  66
ENDBRANCH  17  21
ENDBRANCH  16  18
BRANCH  16  73
ATOM     73  CB  THR A   5      37.881 -17.569 192.019  0.00  0.00    +0.137 C 
ATOM     74  CG2 THR A   5      38.527 -17.332 193.378  0.00  0.00    +0.034 C 
BRANCH  73  75
ATOM     75  OG1 THR A   5      36.976 -16.499 191.750  0.00  0.00    -0.382 OA
ATOM     76  HG1 THR A   5      36.524 -16.661 190.884  0.00  0.00    +0.210 HD
ENDBRANCH  73  75
ENDBRANCH  16  73
ENDBRANCH  12  16
ENDBRANCH  11  14
BRANCH  11  77
ATOM     77  CB  ASP A   6      38.216 -17.169 186.036  0.00  0.00    +0.143 C 
BRANCH  77  78
ATOM     78  CG  ASP A   6      37.602 -15.803 185.796  0.00  0.00    +0.367 C 
ATOM     79  OD2 ASP A   6      36.598 -15.474 186.473  0.00  0.00    -0.246 OA
ATOM     80  OD1 ASP A   6      38.091 -15.079 184.899  0.00  0.00    -0.246 OA
ENDBRANCH  77  78
ENDBRANCH  11  77
ENDBRANCH   7  11
ENDBRANCH   5   8
ENDBRANCH   1   5
BRANCH   2  81
ATOM     81  CA  ASP A   8      37.639 -22.637 189.902  0.00  0.00    +0.160 C 
BRANCH  81  82
ATOM     82  C   ASP A   8      36.189 -22.969 189.629  0.00  0.00    +0.241 C 
ATOM     83  O   ASP A   8      35.696 -24.039 190.004  0.00  0.00    -0.273 OA
ATOM     84  N   VAL A   9      35.491 -22.032 188.996  0.00  0.00    -0.297 N 
ATOM     85  H   VAL A   9      35.967 -21.166 188.673  0.00  0.00    +0.150 HD
BRANCH  84  86
ATOM     86  CA  VAL A   9      34.068 -22.206 188.751  0.00  0.00    +0.149 C 
BRANCH  86  87
ATOM     87  C   VAL A   9      33.804 -22.400 187.265  0.00  0.00    +0.241 C 
ATOM     88  O   VAL A   9      32.687 -22.190 186.802  0.00  0.00    -0.273 OA
ATOM     89  N   GLY A  10      34.839 -22.800 186.528  0.00  0.00    -0.295 N 
ATOM     90  H   GLY A  10      35.774 -22.883 186.977  0.00  0.00    +0.150 HD
BRANCH  89  91
ATOM     91  CA  GLY A  10      34.705 -23.126 185.111  0.00  0.00    +0.176 C 
BRANCH  91  92
ATOM     92  C   GLY A  10      34.552 -21.934 184.178  0.00  0.00    +0.243 C 
ATOM     93  N   SER A  11      34.903 -20.753 184.667  0.00  0.00    -0.295 N 
ATOM     94  H   SER A  11      35.255 -20.686 185.643  0.00  0.00    +0.150 HD
ATOM     95  O   GLY A  10      34.162 -22.073 183.018  0.00  0.00    -0.273 OA
BRANCH  93  96
ATOM     96  CA  SER A  11      34.803 -19.549 183.856  0.00  0.00    +0.178 C 
BRANCH  96  97
ATOM     97  C   SER A  11      36.186 -19.064 183.456  0.00  0.00    +0.243 C 
ATOM     98  O   SER A  11      37.200 -19.575 183.952  0.00  0.00    -0.273 OA
ATOM     99  N   PHE A  12      36.224 -18.060 182.579  0.00  0.00    -0.297 N 
ATOM    100  H   PHE A  12      35.344 -17.750 182.119  0.00  0.00    +0.150 HD
BRANCH  99 101
ATOM    101  CA  PHE A  12      37.477 -17.388 182.253  0.00  0.00    +0.153 C 
BRANCH 101 102
ATOM    102  C   PHE A  12      37.209 -16.033 181.627  0.00  0.00    +0.241 C 
ATOM    103  N   ASP A  13      37.999 -15.042 182.031  0.00  0.00    -0.297 N 
ATOM    104  H   ASP A  13      38.612 -15.188 182.859  0.00  0.00    +0.150 HD
ATOM    105  O   PHE A  12      36.282 -15.882 180.831  0.00  0.00    -0.273 OA
BRANCH 103 106
ATOM    106  CA  ASP A  13      38.028 -13.757 181.343  0.00  0.00    +0.160 C 
BRANCH 106 107
ATOM    107  C   ASP A  13      39.218 -13.834 180.405  0.00  0.00    +0.241 C 
ATOM    108  O   ASP A  13      40.365 -13.759 180.846  0.00  0.00    -0.273 OA
ATOM    109  N   GLY A  14      38.939 -14.025 179.122  0.00  0.00    -0.295 N 
ATOM    110  H   GLY A  14      37.944 -14.074 178.824  0.00  0.00    +0.150 HD
BRANCH 109 111
ATOM    111  CA  GLY A  14      39.979 -14.167 178.123  0.00  0.00    +0.176 C 
BRANCH 111 112
ATOM    112  C   GLY A  14      40.319 -12.850 177.449  0.00  0.00    +0.243 C 
ATOM    113  N   GLY A  15      39.859 -11.741 178.024  0.00  0.00    -0.295 N 
ATOM    114  H   GLY A  15      39.302 -11.811 178.900  0.00  0.00    +0.150 HD
ATOM    115  O   GLY A  14      41.007 -12.835 176.435  0.00  0.00    -0.273 OA
BRANCH 113 116
ATOM    116  CA  GLY A  15      40.123 -10.435 177.447  0.00  0.00    +0.176 C 
BRANCH 116 117
ATOM    117  C   GLY A  15      41.052  -9.583 178.282  0.00  0.00    +0.243 C 
ATOM    118  N   TYR A  16      40.532  -8.467 178.795  0.00  0.00    -0.297 N 
ATOM    119  H   TYR A  16      39.541  -8.230 178.585  0.00  0.00    +0.150 HD
ATOM    120  O   GLY A  15      42.228  -9.914 178.438  0.00  0.00    -0.273 OA
BRANCH 118 121
ATOM    121  CA  TYR A  16      41.306  -7.571 179.639  0.00  0.00    +0.153 C 
BRANCH 121 122
ATOM    122  C   TYR A  16      41.710  -8.206 180.972  0.00  0.00    +0.241 C 
ATOM    123  O   TYR A  16      42.760  -7.890 181.525  0.00  0.00    -0.273 OA
ATOM    124  N   GLY A  17      40.874  -9.093 181.492  0.00  0.00    -0.296 N 
ATOM    125  H   GLY A  17      40.018  -9.361 180.966  0.00  0.00    +0.150 HD
BRANCH 124 126
ATOM    126  CA  GLY A  17      41.137  -9.696 182.785  0.00  0.00    +0.163 C 
BRANCH 126 127
ATOM    127  C   GLY A  17      42.456 -10.437 182.834  0.00  0.00    +0.229 C 
ATOM    128  O   GLY A  17      43.134 -10.440 183.855  0.00  0.00    -0.286 OA
ENDBRANCH 126 127
ENDBRANCH 124 126
ENDBRANCH 121 122
BRANCH 121 129
ATOM    129  CB  TYR A  16      40.528  -6.280 179.902  0.00  0.00    +0.055 C 
BRANCH 129 130
ATOM    130  CG  TYR A  16      40.546  -5.335 178.728  0.00  0.00    -0.020 A 
ATOM    131  CD2 TYR A  16      41.675  -4.571 178.443  0.00  0.00    -0.001 A 
ATOM    132  CE2 TYR A  16      41.704  -3.707 177.358  0.00  0.00    +0.036 A 
ATOM    133  CZ  TYR A  16      40.598  -3.607 176.543  0.00  0.00    +0.134 A 
ATOM    134  CE1 TYR A  16      39.466  -4.362 176.803  0.00  0.00    +0.036 A 
ATOM    135  CD1 TYR A  16      39.446  -5.218 177.893  0.00  0.00    -0.001 A 
BRANCH 133 136
ATOM    136  OH  TYR A  16      40.623  -2.754 175.468  0.00  0.00    -0.506 OA
ATOM    137  HH  TYR A  16      41.501  -2.297 175.431  0.00  0.00    +0.292 HD
ENDBRANCH 133 136
ENDBRANCH 129 130
ENDBRANCH 121 129
ENDBRANCH 118 121
ENDBRANCH 116 117
ENDBRANCH 113 116
ENDBRANCH 111 112
ENDBRANCH 109 111
ENDBRANCH 106 107
BRANCH 106 138
ATOM    138  CB  ASP A  13      38.143 -12.573 182.334  0.00  0.00    +0.143 C 
BRANCH 138 139
ATOM    139  CG  ASP A  13      38.064 -11.198 181.643  0.00  0.00    +0.367 C 
ATOM    140  OD2 ASP A  13      37.451 -10.260 182.208  0.00  0.00    -0.246 OA
ATOM    141  OD1 ASP A  13      38.633 -11.043 180.541  0.00  0.00    -0.246 OA
ENDBRANCH 138 139
ENDBRANCH 106 138
ENDBRANCH 103 106
ENDBRANCH 101 102
BRANCH 101 142
ATOM    142  CB  PHE A  12      38.344 -18.237 181.314  0.00  0.00    +0.055 C 
BRANCH 142 143
ATOM    143  CG  PHE A  12      37.670 -18.622 180.025  0.00  0.00    -0.020 A 
ATOM    144  CD2 PHE A  12      36.956 -19.809 179.929  0.00  0.00    -0.004 A 
ATOM    145  CE2 PHE A  12      36.331 -20.171 178.736  0.00  0.00    -0.000 A 
ATOM    146  CZ  PHE A  12      36.425 -19.347 177.623  0.00  0.00    -0.000 A 
ATOM    147  CE1 PHE A  12      37.144 -18.150 177.705  0.00  0.00    -0.000 A 
ATOM    148  CD1 PHE A  12      37.762 -17.801 178.901  0.00  0.00    -0.004 A 
ENDBRANCH 142 143
ENDBRANCH 101 142
ENDBRANCH  99 101
ENDBRANCH  96  97
BRANCH  96 149
ATOM    149  CB  SER A  11      34.059 -18.445 184.624  0.00  0.00    +0.166 C 
BRANCH 149 150
ATOM    150  OG  SER A  11      33.856 -17.295 183.807  0.00  0.00    -0.380 OA
ATOM    151  H   SER A  11      33.376 -16.603 184.327  0.00  0.00    +0.211 HD
ENDBRANCH 149 150
ENDBRANCH  96 149
ENDBRANCH  93  96
ENDBRANCH  91  92
ENDBRANCH  89  91
ENDBRANCH  86  87
BRANCH  86 152
ATOM    152  CB  VAL A   9      33.248 -21.006 189.286  0.00  0.00    +0.027 C 
ATOM    153  CG2 VAL A   9      33.463 -20.853 190.791  0.00  0.00    +0.002 C 
ATOM    154  CG1 VAL A   9      33.620 -19.690 188.554  0.00  0.00    +0.002 C 
ENDBRANCH  86 152
ENDBRANCH  84  86
ENDBRANCH  81  82
BRANCH  81 155
ATOM    155  CB  ASP A   8      37.724 -21.943 191.261  0.00  0.00    +0.143 C 
BRANCH 155 156
ATOM    156  CG  ASP A   8      39.144 -21.827 191.769  0.00  0.00    +0.367 C 
ATOM    157  OD2 ASP A   8      39.438 -20.868 192.526  0.00  0.00    -0.246 OA
ATOM    158  OD1 ASP A   8      39.948 -22.724 191.442  0.00  0.00    -0.246 OA
ENDBRANCH 155 156
ENDBRANCH  81 155
ENDBRANCH   2  81
TORSDOF 64
REMARK  Name = ../refined-set-2016/4qij/4qij_pocket.pdb
REMARK  291 active torsions:
REMARK  status: ('A' for Active; 'I' for Inactive)
REMARK    1  A    between atoms: _1  and  _3
REMARK    2  A    between atoms: _3  and  _4
REMARK    3  A    between atoms: _3  and  _6
REMARK    4  A    between atoms: _6  and  _7
REMARK    5  A    between atoms: _7  and  _8
REMARK    6  A    between atoms: _8  and  _9
REMARK    7  A    between atoms: _19  and  _20
REMARK    8  A    between atoms: _25  and  _27
REMARK    9  A    between atoms: _27  and  _28
REMARK   10  A    between atoms: _27  and  _30
REMARK   11  A    between atoms: _30  and  _31
REMARK   12  A    between atoms: _31  and  _32
REMARK   13  A    between atoms: _35  and  _37
REMARK   14  A    between atoms: _37  and  _38
REMARK   15  A    between atoms: _37  and  _40
REMARK   16  A    between atoms: _43  and  _45
REMARK   17  A    between atoms: _45  and  _46
REMARK   18  A    between atoms: _45  and  _48
REMARK   19  A    between atoms: _48  and  _49
REMARK   20  A    between atoms: _49  and  _50
REMARK   21  A    between atoms: _50  and  _51
REMARK   22  A    between atoms: _60  and  _62
REMARK   23  A    between atoms: _62  and  _63
REMARK   24  A    between atoms: _62  and  _65
REMARK   25  A    between atoms: _65  and  _66
REMARK   26  A    between atoms: _71  and  _73
REMARK   27  A    between atoms: _73  and  _74
REMARK   28  A    between atoms: _77  and  _79
REMARK   29  A    between atoms: _79  and  _80
REMARK   30  A    between atoms: _79  and  _82
REMARK   31  A    between atoms: _82  and  _83
REMARK   32  A    between atoms: _89  and  _91
REMARK   33  A    between atoms: _91  and  _92
REMARK   34  A    between atoms: _91  and  _94
REMARK   35  A    between atoms: _97  and  _99
REMARK   36  A    between atoms: _99  and  _100
REMARK   37  A    between atoms: _99  and  _102
REMARK   38  A    between atoms: _102  and  _103
REMARK   39  A    between atoms: _105  and  _107
REMARK   40  A    between atoms: _107  and  _108
REMARK   41  A    between atoms: _107  and  _110
REMARK   42  A    between atoms: _110  and  _111
REMARK   43  A    between atoms: _111  and  _112
REMARK   44  A    between atoms: _112  and  _113
REMARK   45  A    between atoms: _113  and  _114
REMARK   46  A    between atoms: _118  and  _120
REMARK   47  A    between atoms: _120  and  _121
REMARK   48  A    between atoms: _120  and  _123
REMARK   49  A    between atoms: _123  and  _124
REMARK   50  A    between atoms: _127  and  _129
REMARK   51  A    between atoms: _129  and  _130
REMARK   52  A    between atoms: _132  and  _134
REMARK   53  A    between atoms: _134  and  _135
REMARK   54  A    between atoms: _134  and  _137
REMARK   55  A    between atoms: _137  and  _138
REMARK   56  A    between atoms: _148  and  _150
REMARK   57  A    between atoms: _150  and  _151
REMARK   58  A    between atoms: _154  and  _156
REMARK   59  A    between atoms: _156  and  _157
REMARK   60  A    between atoms: _156  and  _159
REMARK   61  A    between atoms: _159  and  _160
REMARK   62  A    between atoms: _166  and  _168
REMARK   63  A    between atoms: _168  and  _169
REMARK   64  A    between atoms: _168  and  _171
REMARK   65  A    between atoms: _173  and  _175
REMARK   66  A    between atoms: _175  and  _176
REMARK   67  A    between atoms: _175  and  _178
REMARK   68  A    between atoms: _178  and  _179
REMARK   69  A    between atoms: _181  and  _183
REMARK   70  A    between atoms: _183  and  _184
REMARK   71  A    between atoms: _186  and  _188
REMARK   72  A    between atoms: _188  and  _189
REMARK   73  A    between atoms: _191  and  _193
REMARK   74  A    between atoms: _193  and  _194
REMARK   75  A    between atoms: _193  and  _196
REMARK   76  A    between atoms: _196  and  _197
REMARK   77  A    between atoms: _200  and  _202
REMARK   78  A    between atoms: _202  and  _203
REMARK   79  A    between atoms: _202  and  _205
REMARK   80  A    between atoms: _205  and  _206
REMARK   81  A    between atoms: _206  and  _207
REMARK   82  A    between atoms: _212  and  _214
REMARK   83  A    between atoms: _214  and  _215
REMARK   84  A    between atoms: _214  and  _217
REMARK   85  A    between atoms: _217  and  _218
REMARK   86  A    between atoms: _218  and  _219
REMARK   87  A    between atoms: _219  and  _220
REMARK   88  A    between atoms: _229  and  _231
REMARK   89  A    between atoms: _231  and  _232
REMARK   90  A    between atoms: _231  and  _234
REMARK   91  A    between atoms: _234  and  _235
REMARK   92  A    between atoms: _238  and  _240
REMARK   93  A    between atoms: _240  and  _241
REMARK   94  A    between atoms: _240  and  _243
REMARK   95  A    between atoms: _243  and  _244
REMARK   96  A    between atoms: _244  and  _245
REMARK   97  A    between atoms: _245  and  _246
REMARK   98  A    between atoms: _255  and  _257
REMARK   99  A    between atoms: _257  and  _258
REMARK  100  A    between atoms: _260  and  _262
REMARK  101  A    between atoms: _262  and  _263
REMARK  102  A    between atoms: _262  and  _265
REMARK  103  A    between atoms: _265  and  _266
REMARK  104  A    between atoms: _271  and  _272
REMARK  105  A    between atoms: _274  and  _276
REMARK  106  A    between atoms: _276  and  _277
REMARK  107  A    between atoms: _276  and  _279
REMARK  108  A    between atoms: _279  and  _280
REMARK  109  A    between atoms: _283  and  _285
REMARK  110  A    between atoms: _285  and  _286
REMARK  111  A    between atoms: _285  and  _288
REMARK  112  A    between atoms: _288  and  _289
REMARK  113  A    between atoms: _289  and  _290
REMARK  114  A    between atoms: _290  and  _291
REMARK  115  A    between atoms: _300  and  _302
REMARK  116  A    between atoms: _302  and  _303
REMARK  117  A    between atoms: _302  and  _305
REMARK  118  A    between atoms: _305  and  _306
REMARK  119  A    between atoms: _309  and  _311
REMARK  120  A    between atoms: _311  and  _312
REMARK  121  A    between atoms: _311  and  _314
REMARK  122  A    between atoms: _314  and  _315
REMARK  123  A    between atoms: _320  and  _322
REMARK  124  A    between atoms: _322  and  _323
REMARK  125  A    between atoms: _322  and  _325
REMARK  126  A    between atoms: _325  and  _326
REMARK  127  A    between atoms: _329  and  _331
REMARK  128  A    between atoms: _331  and  _332
REMARK  129  A    between atoms: _331  and  _334
REMARK  130  A    between atoms: _334  and  _335
REMARK  131  A    between atoms: _338  and  _340
REMARK  132  A    between atoms: _340  and  _341
REMARK  133  A    between atoms: _340  and  _343
REMARK  134  A    between atoms: _343  and  _344
REMARK  135  A    between atoms: _344  and  _345
REMARK  136  A    between atoms: _348  and  _350
REMARK  137  A    between atoms: _350  and  _351
REMARK  138  A    between atoms: _350  and  _353
REMARK  139  A    between atoms: _353  and  _354
REMARK  140  A    between atoms: _354  and  _355
REMARK  141  A    between atoms: _360  and  _362
REMARK  142  A    between atoms: _362  and  _363
REMARK  143  A    between atoms: _365  and  _367
REMARK  144  A    between atoms: _367  and  _368
REMARK  145  A    between atoms: _367  and  _370
REMARK  146  A    between atoms: _370  and  _371
REMARK  147  A    between atoms: _381  and  _383
REMARK  148  A    between atoms: _383  and  _384
REMARK  149  A    between atoms: _387  and  _389
REMARK  150  A    between atoms: _389  and  _390
REMARK  151  A    between atoms: _393  and  _395
REMARK  152  A    between atoms: _395  and  _396
REMARK  153  A    between atoms: _398  and  _400
REMARK  154  A    between atoms: _400  and  _401
REMARK  155  A    between atoms: _403  and  _405
REMARK  156  A    between atoms: _405  and  _406
REMARK  157  A    between atoms: _408  and  _410
REMARK  158  A    between atoms: _410  and  _411
REMARK  159  A    between atoms: _410  and  _413
REMARK  160  A    between atoms: _413  and  _414
REMARK  161  A    between atoms: _419  and  _421
REMARK  162  A    between atoms: _421  and  _422
REMARK  163  A    between atoms: _421  and  _424
REMARK  164  A    between atoms: _424  and  _425
REMARK  165  A    between atoms: _427  and  _429
REMARK  166  A    between atoms: _429  and  _430
REMARK  167  A    between atoms: _429  and  _432
REMARK  168  A    between atoms: _432  and  _433
REMARK  169  A    between atoms: _436  and  _438
REMARK  170  A    between atoms: _438  and  _439
REMARK  171  A    between atoms: _438  and  _441
REMARK  172  A    between atoms: _441  and  _442
REMARK  173  A    between atoms: _442  and  _443
REMARK  174  A    between atoms: _443  and  _444
REMARK  175  A    between atoms: _453  and  _455
REMARK  176  A    between atoms: _455  and  _456
REMARK  177  A    between atoms: _455  and  _458
REMARK  178  A    between atoms: _458  and  _459
REMARK  179  A    between atoms: _465  and  _467
REMARK  180  A    between atoms: _467  and  _468
REMARK  181  A    between atoms: _467  and  _470
REMARK  182  A    between atoms: _470  and  _471
REMARK  183  A    between atoms: _471  and  _472
REMARK  184  A    between atoms: _472  and  _473
REMARK  185  A    between atoms: _473  and  _474
REMARK  186  A    between atoms: _478  and  _480
REMARK  187  A    between atoms: _480  and  _481
REMARK  188  A    between atoms: _480  and  _483
REMARK  189  A    between atoms: _483  and  _484
REMARK  190  A    between atoms: _484  and  _485
REMARK  191  A    between atoms: _490  and  _492
REMARK  192  A    between atoms: _492  and  _493
REMARK  193  A    between atoms: _492  and  _495
REMARK  194  A    between atoms: _495  and  _496
REMARK  195  A    between atoms: _499  and  _501
REMARK  196  A    between atoms: _501  and  _502
REMARK  197  A    between atoms: _501  and  _504
REMARK  198  A    between atoms: _504  and  _505
REMARK  199  A    between atoms: _508  and  _510
REMARK  200  A    between atoms: _510  and  _511
REMARK  201  A    between atoms: _514  and  _516
REMARK  202  A    between atoms: _516  and  _517
REMARK  203  A    between atoms: _516  and  _519
REMARK  204  A    between atoms: _519  and  _520
REMARK  205  A    between atoms: _523  and  _525
REMARK  206  A    between atoms: _525  and  _526
REMARK  207  A    between atoms: _525  and  _528
REMARK  208  A    between atoms: _531  and  _533
REMARK  209  A    between atoms: _533  and  _534
REMARK  210  A    between atoms: _536  and  _538
REMARK  211  A    between atoms: _538  and  _539
REMARK  212  A    between atoms: _538  and  _541
REMARK  213  A    between atoms: _541  and  _542
REMARK  214  A    between atoms: _544  and  _546
REMARK  215  A    between atoms: _546  and  _547
REMARK  216  A    between atoms: _546  and  _549
REMARK  217  A    between atoms: _549  and  _550
REMARK  218  A    between atoms: _556  and  _558
REMARK  219  A    between atoms: _558  and  _559
REMARK  220  A    between atoms: _558  and  _561
REMARK  221  A    between atoms: _561  and  _562
REMARK  222  A    between atoms: _565  and  _567
REMARK  223  A    between atoms: _567  and  _568
REMARK  224  A    between atoms: _570  and  _572
REMARK  225  A    between atoms: _572  and  _573
REMARK  226  A    between atoms: _575  and  _577
REMARK  227  A    between atoms: _577  and  _578
REMARK  228  A    between atoms: _577  and  _580
REMARK  229  A    between atoms: _580  and  _581
REMARK  230  A    between atoms: _586  and  _587
REMARK  231  A    between atoms: _589  and  _591
REMARK  232  A    between atoms: _591  and  _592
REMARK  233  A    between atoms: _594  and  _596
REMARK  234  A    between atoms: _596  and  _597
REMARK  235  A    between atoms: _596  and  _599
REMARK  236  A    between atoms: _599  and  _600
REMARK  237  A    between atoms: _606  and  _608
REMARK  238  A    between atoms: _608  and  _609
REMARK  239  A    between atoms: _608  and  _611
REMARK  240  A    between atoms: _611  and  _612
REMARK  241  A    between atoms: _615  and  _617
REMARK  242  A    between atoms: _617  and  _618
REMARK  243  A    between atoms: _617  and  _620
REMARK  244  A    between atoms: _620  and  _621
REMARK  245  A    between atoms: _621  and  _622
REMARK  246  A    between atoms: _627  and  _629
REMARK  247  A    between atoms: _629  and  _630
REMARK  248  A    between atoms: _633  and  _635
REMARK  249  A    between atoms: _635  and  _636
REMARK  250  A    between atoms: _638  and  _640
REMARK  251  A    between atoms: _640  and  _641
REMARK  252  A    between atoms: _640  and  _643
REMARK  253  A    between atoms: _643  and  _644
REMARK  254  A    between atoms: _644  and  _645
REMARK  255  A    between atoms: _648  and  _650
REMARK  256  A    between atoms: _650  and  _651
REMARK  257  A    between atoms: _650  and  _653
REMARK  258  A    between atoms: _653  and  _654
REMARK  259  A    between atoms: _657  and  _659
REMARK  260  A    between atoms: _659  and  _660
REMARK  261  A    between atoms: _659  and  _662
REMARK  262  A    between atoms: _662  and  _663
REMARK  263  A    between atoms: _663  and  _664
REMARK  264  A    between atoms: _664  and  _665
REMARK  265  A    between atoms: _674  and  _676
REMARK  266  A    between atoms: _676  and  _677
REMARK  267  A    between atoms: _676  and  _679
REMARK  268  A    between atoms: _679  and  _680
REMARK  269  A    between atoms: _685  and  _686
REMARK  270  A    between atoms: _688  and  _690
REMARK  271  A    between atoms: _690  and  _691
REMARK  272  A    between atoms: _693  and  _695
REMARK  273  A    between atoms: _695  and  _696
REMARK  274  A    between atoms: _695  and  _698
REMARK  275  A    between atoms: _698  and  _699
REMARK  276  A    between atoms: _705  and  _707
REMARK  277  A    between atoms: _707  and  _708
REMARK  278  A    between atoms: _707  and  _710
REMARK  279  A    between atoms: _710  and  _711
REMARK  280  A    between atoms: _714  and  _716
REMARK  281  A    between atoms: _716  and  _717
REMARK  282  A    between atoms: _716  and  _719
REMARK  283  A    between atoms: _719  and  _720
REMARK  284  A    between atoms: _720  and  _721
REMARK  285  A    between atoms: _726  and  _728
REMARK  286  A    between atoms: _728  and  _729
REMARK  287  A    between atoms: _728  and  _731
REMARK  288  A    between atoms: _731  and  _732
REMARK  289  A    between atoms: _732  and  _733
REMARK  290  A    between atoms: _733  and  _734
REMARK  291  A    between atoms: _734  and  _735
REMARK                            x       y       z     vdW  Elec       q    Type
REMARK                         _______ _______ _______ _____ _____    ______ ____
ROOT
ATOM      1  CB  PHE A   1      44.902 -16.960 185.308  0.00  0.00    +0.051 C 
ENDROOT
BRANCH   1   2
ATOM      2  CG  PHE A   1      44.020 -15.762 185.048  0.00  0.00    -0.020 A 
ATOM      3  CD2 PHE A   1      44.531 -14.473 185.142  0.00  0.00    -0.004 A 
ATOM      4  CE2 PHE A   1      43.716 -13.362 184.886  0.00  0.00    -0.000 A 
ATOM      5  CZ  PHE A   1      42.376 -13.553 184.545  0.00  0.00    -0.000 A 
ATOM      6  CE1 PHE A   1      41.863 -14.837 184.455  0.00  0.00    -0.000 A 
ATOM      7  CD1 PHE A   1      42.682 -15.931 184.702  0.00  0.00    -0.004 A 
ENDBRANCH   1   2
BRANCH   1   8
ATOM      8  CA  PHE A   1      45.072 -17.302 186.793  0.00  0.00    +0.137 C 
BRANCH   8   9
ATOM      9  N   PHE A   1      46.227 -16.587 187.357  0.00  0.00    -0.239 NA
ATOM     10  H   PHE A   1      46.980 -16.268 186.715  0.00  0.00    +0.142 HD
ENDBRANCH   8   9
BRANCH   8  11
ATOM     11  C   PHE A   1      45.150 -18.822 186.924  0.00  0.00    +0.224 C 
ATOM     12  O   PHE A   1      44.158 -19.458 187.252  0.00  0.00    -0.287 OA
ENDBRANCH   8  11
ENDBRANCH   1   8
TORSDOF 4
REMARK  Name = ../refined-set-2016/4qij/4qij_pocket.pdb
REMARK  291 active torsions:
REMARK  status: ('A' for Active; 'I' for Inactive)
REMARK    1  A    between atoms: _1  and  _3
REMARK    2  A    between atoms: _3  and  _4
REMARK    3  A    between atoms: _3  and  _6
REMARK    4  A    between atoms: _6  and  _7
REMARK    5  A    between atoms: _7  and  _8
REMARK    6  A    between atoms: _8  and  _9
REMARK    7  A    between atoms: _19  and  _20
REMARK    8  A    between atoms: _25  and  _27
REMARK    9  A    between atoms: _27  and  _28
REMARK   10  A    between atoms: _27  and  _30
REMARK   11  A    between atoms: _30  and  _31
REMARK   12  A    between atoms: _31  and  _32
REMARK   13  A    between atoms: _35  and  _37
REMARK   14  A    between atoms: _37  and  _38
REMARK   15  A    between atoms: _37  and  _40
REMARK   16  A    between atoms: _43  and  _45
REMARK   17  A    between atoms: _45  and  _46
REMARK   18  A    between atoms: _45  and  _48
REMARK   19  A    between atoms: _48  and  _49
REMARK   20  A    between atoms: _49  and  _50
REMARK   21  A    between atoms: _50  and  _51
REMARK   22  A    between atoms: _60  and  _62
REMARK   23  A    between atoms: _62  and  _63
REMARK   24  A    between atoms: _62  and  _65
REMARK   25  A    between atoms: _65  and  _66
REMARK   26  A    between atoms: _71  and  _73
REMARK   27  A    between atoms: _73  and  _74
REMARK   28  A    between atoms: _77  and  _79
REMARK   29  A    between atoms: _79  and  _80
REMARK   30  A    between atoms: _79  and  _82
REMARK   31  A    between atoms: _82  and  _83
REMARK   32  A    between atoms: _89  and  _91
REMARK   33  A    between atoms: _91  and  _92
REMARK   34  A    between atoms: _91  and  _94
REMARK   35  A    between atoms: _97  and  _99
REMARK   36  A    between atoms: _99  and  _100
REMARK   37  A    between atoms: _99  and  _102
REMARK   38  A    between atoms: _102  and  _103
REMARK   39  A    between atoms: _105  and  _107
REMARK   40  A    between atoms: _107  and  _108
REMARK   41  A    between atoms: _107  and  _110
REMARK   42  A    between atoms: _110  and  _111
REMARK   43  A    between atoms: _111  and  _112
REMARK   44  A    between atoms: _112  and  _113
REMARK   45  A    between atoms: _113  and  _114
REMARK   46  A    between atoms: _118  and  _120
REMARK   47  A    between atoms: _120  and  _121
REMARK   48  A    between atoms: _120  and  _123
REMARK   49  A    between atoms: _123  and  _124
REMARK   50  A    between atoms: _127  and  _129
REMARK   51  A    between atoms: _129  and  _130
REMARK   52  A    between atoms: _132  and  _134
REMARK   53  A    between atoms: _134  and  _135
REMARK   54  A    between atoms: _134  and  _137
REMARK   55  A    between atoms: _137  and  _138
REMARK   56  A    between atoms: _148  and  _150
REMARK   57  A    between atoms: _150  and  _151
REMARK   58  A    between atoms: _154  and  _156
REMARK   59  A    between atoms: _156  and  _157
REMARK   60  A    between atoms: _156  and  _159
REMARK   61  A    between atoms: _159  and  _160
REMARK   62  A    between atoms: _166  and  _168
REMARK   63  A    between atoms: _168  and  _169
REMARK   64  A    between atoms: _168  and  _171
REMARK   65  A    between atoms: _173  and  _175
REMARK   66  A    between atoms: _175  and  _176
REMARK   67  A    between atoms: _175  and  _178
REMARK   68  A    between atoms: _178  and  _179
REMARK   69  A    between atoms: _181  and  _183
REMARK   70  A    between atoms: _183  and  _184
REMARK   71  A    between atoms: _186  and  _188
REMARK   72  A    between atoms: _188  and  _189
REMARK   73  A    between atoms: _191  and  _193
REMARK   74  A    between atoms: _193  and  _194
REMARK   75  A    between atoms: _193  and  _196
REMARK   76  A    between atoms: _196  and  _197
REMARK   77  A    between atoms: _200  and  _202
REMARK   78  A    between atoms: _202  and  _203
REMARK   79  A    between atoms: _202  and  _205
REMARK   80  A    between atoms: _205  and  _206
REMARK   81  A    between atoms: _206  and  _207
REMARK   82  A    between atoms: _212  and  _214
REMARK   83  A    between atoms: _214  and  _215
REMARK   84  A    between atoms: _214  and  _217
REMARK   85  A    between atoms: _217  and  _218
REMARK   86  A    between atoms: _218  and  _219
REMARK   87  A    between atoms: _219  and  _220
REMARK   88  A    between atoms: _229  and  _231
REMARK   89  A    between atoms: _231  and  _232
REMARK   90  A    between atoms: _231  and  _234
REMARK   91  A    between atoms: _234  and  _235
REMARK   92  A    between atoms: _238  and  _240
REMARK   93  A    between atoms: _240  and  _241
REMARK   94  A    between atoms: _240  and  _243
REMARK   95  A    between atoms: _243  and  _244
REMARK   96  A    between atoms: _244  and  _245
REMARK   97  A    between atoms: _245  and  _246
REMARK   98  A    between atoms: _255  and  _257
REMARK   99  A    between atoms: _257  and  _258
REMARK  100  A    between atoms: _260  and  _262
REMARK  101  A    between atoms: _262  and  _263
REMARK  102  A    between atoms: _262  and  _265
REMARK  103  A    between atoms: _265  and  _266
REMARK  104  A    between atoms: _271  and  _272
REMARK  105  A    between atoms: _274  and  _276
REMARK  106  A    between atoms: _276  and  _277
REMARK  107  A    between atoms: _276  and  _279
REMARK  108  A    between atoms: _279  and  _280
REMARK  109  A    between atoms: _283  and  _285
REMARK  110  A    between atoms: _285  and  _286
REMARK  111  A    between atoms: _285  and  _288
REMARK  112  A    between atoms: _288  and  _289
REMARK  113  A    between atoms: _289  and  _290
REMARK  114  A    between atoms: _290  and  _291
REMARK  115  A    between atoms: _300  and  _302
REMARK  116  A    between atoms: _302  and  _303
REMARK  117  A    between atoms: _302  and  _305
REMARK  118  A    between atoms: _305  and  _306
REMARK  119  A    between atoms: _309  and  _311
REMARK  120  A    between atoms: _311  and  _312
REMARK  121  A    between atoms: _311  and  _314
REMARK  122  A    between atoms: _314  and  _315
REMARK  123  A    between atoms: _320  and  _322
REMARK  124  A    between atoms: _322  and  _323
REMARK  125  A    between atoms: _322  and  _325
REMARK  126  A    between atoms: _325  and  _326
REMARK  127  A    between atoms: _329  and  _331
REMARK  128  A    between atoms: _331  and  _332
REMARK  129  A    between atoms: _331  and  _334
REMARK  130  A    between atoms: _334  and  _335
REMARK  131  A    between atoms: _338  and  _340
REMARK  132  A    between atoms: _340  and  _341
REMARK  133  A    between atoms: _340  and  _343
REMARK  134  A    between atoms: _343  and  _344
REMARK  135  A    between atoms: _344  and  _345
REMARK  136  A    between atoms: _348  and  _350
REMARK  137  A    between atoms: _350  and  _351
REMARK  138  A    between atoms: _350  and  _353
REMARK  139  A    between atoms: _353  and  _354
REMARK  140  A    between atoms: _354  and  _355
REMARK  141  A    between atoms: _360  and  _362
REMARK  142  A    between atoms: _362  and  _363
REMARK  143  A    between atoms: _365  and  _367
REMARK  144  A    between atoms: _367  and  _368
REMARK  145  A    between atoms: _367  and  _370
REMARK  146  A    between atoms: _370  and  _371
REMARK  147  A    between atoms: _381  and  _383
REMARK  148  A    between atoms: _383  and  _384
REMARK  149  A    between atoms: _387  and  _389
REMARK  150  A    between atoms: _389  and  _390
REMARK  151  A    between atoms: _393  and  _395
REMARK  152  A    between atoms: _395  and  _396
REMARK  153  A    between atoms: _398  and  _400
REMARK  154  A    between atoms: _400  and  _401
REMARK  155  A    between atoms: _403  and  _405
REMARK  156  A    between atoms: _405  and  _406
REMARK  157  A    between atoms: _408  and  _410
REMARK  158  A    between atoms: _410  and  _411
REMARK  159  A    between atoms: _410  and  _413
REMARK  160  A    between atoms: _413  and  _414
REMARK  161  A    between atoms: _419  and  _421
REMARK  162  A    between atoms: _421  and  _422
REMARK  163  A    between atoms: _421  and  _424
REMARK  164  A    between atoms: _424  and  _425
REMARK  165  A    between atoms: _427  and  _429
REMARK  166  A    between atoms: _429  and  _430
REMARK  167  A    between atoms: _429  and  _432
REMARK  168  A    between atoms: _432  and  _433
REMARK  169  A    between atoms: _436  and  _438
REMARK  170  A    between atoms: _438  and  _439
REMARK  171  A    between atoms: _438  and  _441
REMARK  172  A    between atoms: _441  and  _442
REMARK  173  A    between atoms: _442  and  _443
REMARK  174  A    between atoms: _443  and  _444
REMARK  175  A    between atoms: _453  and  _455
REMARK  176  A    between atoms: _455  and  _456
REMARK  177  A    between atoms: _455  and  _458
REMARK  178  A    between atoms: _458  and  _459
REMARK  179  A    between atoms: _465  and  _467
REMARK  180  A    between atoms: _467  and  _468
REMARK  181  A    between atoms: _467  and  _470
REMARK  182  A    between atoms: _470  and  _471
REMARK  183  A    between atoms: _471  and  _472
REMARK  184  A    between atoms: _472  and  _473
REMARK  185  A    between atoms: _473  and  _474
REMARK  186  A    between atoms: _478  and  _480
REMARK  187  A    between atoms: _480  and  _481
REMARK  188  A    between atoms: _480  and  _483
REMARK  189  A    between atoms: _483  and  _484
REMARK  190  A    between atoms: _484  and  _485
REMARK  191  A    between atoms: _490  and  _492
REMARK  192  A    between atoms: _492  and  _493
REMARK  193  A    between atoms: _492  and  _495
REMARK  194  A    between atoms: _495  and  _496
REMARK  195  A    between atoms: _499  and  _501
REMARK  196  A    between atoms: _501  and  _502
REMARK  197  A    between atoms: _501  and  _504
REMARK  198  A    between atoms: _504  and  _505
REMARK  199  A    between atoms: _508  and  _510
REMARK  200  A    between atoms: _510  and  _511
REMARK  201  A    between atoms: _514  and  _516
REMARK  202  A    between atoms: _516  and  _517
REMARK  203  A    between atoms: _516  and  _519
REMARK  204  A    between atoms: _519  and  _520
REMARK  205  A    between atoms: _523  and  _525
REMARK  206  A    between atoms: _525  and  _526
REMARK  207  A    between atoms: _525  and  _528
REMARK  208  A    between atoms: _531  and  _533
REMARK  209  A    between atoms: _533  and  _534
REMARK  210  A    between atoms: _536  and  _538
REMARK  211  A    between atoms: _538  and  _539
REMARK  212  A    between atoms: _538  and  _541
REMARK  213  A    between atoms: _541  and  _542
REMARK  214  A    between atoms: _544  and  _546
REMARK  215  A    between atoms: _546  and  _547
REMARK  216  A    between atoms: _546  and  _549
REMARK  217  A    between atoms: _549  and  _550
REMARK  218  A    between atoms: _556  and  _558
REMARK  219  A    between atoms: _558  and  _559
REMARK  220  A    between atoms: _558  and  _561
REMARK  221  A    between atoms: _561  and  _562
REMARK  222  A    between atoms: _565  and  _567
REMARK  223  A    between atoms: _567  and  _568
REMARK  224  A    between atoms: _570  and  _572
REMARK  225  A    between atoms: _572  and  _573
REMARK  226  A    between atoms: _575  and  _577
REMARK  227  A    between atoms: _577  and  _578
REMARK  228  A    between atoms: _577  and  _580
REMARK  229  A    between atoms: _580  and  _581
REMARK  230  A    between atoms: _586  and  _587
REMARK  231  A    between atoms: _589  and  _591
REMARK  232  A    between atoms: _591  and  _592
REMARK  233  A    between atoms: _594  and  _596
REMARK  234  A    between atoms: _596  and  _597
REMARK  235  A    between atoms: _596  and  _599
REMARK  236  A    between atoms: _599  and  _600
REMARK  237  A    between atoms: _606  and  _608
REMARK  238  A    between atoms: _608  and  _609
REMARK  239  A    between atoms: _608  and  _611
REMARK  240  A    between atoms: _611  and  _612
REMARK  241  A    between atoms: _615  and  _617
REMARK  242  A    between atoms: _617  and  _618
REMARK  243  A    between atoms: _617  and  _620
REMARK  244  A    between atoms: _620  and  _621
REMARK  245  A    between atoms: _621  and  _622
REMARK  246  A    between atoms: _627  and  _629
REMARK  247  A    between atoms: _629  and  _630
REMARK  248  A    between atoms: _633  and  _635
REMARK  249  A    between atoms: _635  and  _636
REMARK  250  A    between atoms: _638  and  _640
REMARK  251  A    between atoms: _640  and  _641
REMARK  252  A    between atoms: _640  and  _643
REMARK  253  A    between atoms: _643  and  _644
REMARK  254  A    between atoms: _644  and  _645
REMARK  255  A    between atoms: _648  and  _650
REMARK  256  A    between atoms: _650  and  _651
REMARK  257  A    between atoms: _650  and  _653
REMARK  258  A    between atoms: _653  and  _654
REMARK  259  A    between atoms: _657  and  _659
REMARK  260  A    between atoms: _659  and  _660
REMARK  261  A    between atoms: _659  and  _662
REMARK  262  A    between atoms: _662  and  _663
REMARK  263  A    between atoms: _663  and  _664
REMARK  264  A    between atoms: _664  and  _665
REMARK  265  A    between atoms: _674  and  _676
REMARK  266  A    between atoms: _676  and  _677
REMARK  267  A    between atoms: _676  and  _679
REMARK  268  A    between atoms: _679  and  _680
REMARK  269  A    between atoms: _685  and  _686
REMARK  270  A    between atoms: _688  and  _690
REMARK  271  A    between atoms: _690  and  _691
REMARK  272  A    between atoms: _693  and  _695
REMARK  273  A    between atoms: _695  and  _696
REMARK  274  A    between atoms: _695  and  _698
REMARK  275  A    between atoms: _698  and  _699
REMARK  276  A    between atoms: _705  and  _707
REMARK  277  A    between atoms: _707  and  _708
REMARK  278  A    between atoms: _707  and  _710
REMARK  279  A    between atoms: _710  and  _711
REMARK  280  A    between atoms: _714  and  _716
REMARK  281  A    between atoms: _716  and  _717
REMARK  282  A    between atoms: _716  and  _719
REMARK  283  A    between atoms: _719  and  _720
REMARK  284  A    between atoms: _720  and  _721
REMARK  285  A    between atoms: _726  and  _728
REMARK  286  A    between atoms: _728  and  _729
REMARK  287  A    between atoms: _728  and  _731
REMARK  288  A    between atoms: _731  and  _732
REMARK  289  A    between atoms: _732  and  _733
REMARK  290  A    between atoms: _733  and  _734
REMARK  291  A    between atoms: _734  and  _735
REMARK                            x       y       z     vdW  Elec       q    Type
REMARK                         _______ _______ _______ _____ _____    ______ ____
ROOT
ATOM      1  CA  THR A   1      45.065 -15.262 197.199  0.00  0.00    +0.160 C 
ENDROOT
BRANCH   1   2
ATOM      2  N   THR A   1      45.440 -16.546 196.627  0.00  0.00    -0.237 NA
ATOM      3  H   THR A   1      45.682 -17.329 197.268  0.00  0.00    +0.142 HD
ENDBRANCH   1   2
BRANCH   1   4
ATOM      4  CB  THR A   1      44.334 -15.442 198.562  0.00  0.00    +0.134 C 
ATOM      5  CG2 THR A   1      43.888 -14.093 199.128  0.00  0.00    +0.034 C 
BRANCH   4   6
ATOM      6  OG1 THR A   1      43.189 -16.288 198.395  0.00  0.00    -0.383 OA
ATOM      7  HG1 THR A   1      42.731 -16.397 199.266  0.00  0.00    +0.210 HD
ENDBRANCH   4   6
ENDBRANCH   1   4
BRANCH   1   8
ATOM      8  C   THR A   1      46.329 -14.409 197.401  0.00  0.00    +0.227 C 
ATOM      9  O   THR A   1      47.311 -14.881 197.970  0.00  0.00    -0.287 OA
ENDBRANCH   1   8
TORSDOF 4
REMARK  Name = ../refined-set-2016/4qij/4qij_pocket.pdb
REMARK  291 active torsions:
REMARK  status: ('A' for Active; 'I' for Inactive)
REMARK    1  A    between atoms: _1  and  _3
REMARK    2  A    between atoms: _3  and  _4
REMARK    3  A    between atoms: _3  and  _6
REMARK    4  A    between atoms: _6  and  _7
REMARK    5  A    between atoms: _7  and  _8
REMARK    6  A    between atoms: _8  and  _9
REMARK    7  A    between atoms: _19  and  _20
REMARK    8  A    between atoms: _25  and  _27
REMARK    9  A    between atoms: _27  and  _28
REMARK   10  A    between atoms: _27  and  _30
REMARK   11  A    between atoms: _30  and  _31
REMARK   12  A    between atoms: _31  and  _32
REMARK   13  A    between atoms: _35  and  _37
REMARK   14  A    between atoms: _37  and  _38
REMARK   15  A    between atoms: _37  and  _40
REMARK   16  A    between atoms: _43  and  _45
REMARK   17  A    between atoms: _45  and  _46
REMARK   18  A    between atoms: _45  and  _48
REMARK   19  A    between atoms: _48  and  _49
REMARK   20  A    between atoms: _49  and  _50
REMARK   21  A    between atoms: _50  and  _51
REMARK   22  A    between atoms: _60  and  _62
REMARK   23  A    between atoms: _62  and  _63
REMARK   24  A    between atoms: _62  and  _65
REMARK   25  A    between atoms: _65  and  _66
REMARK   26  A    between atoms: _71  and  _73
REMARK   27  A    between atoms: _73  and  _74
REMARK   28  A    between atoms: _77  and  _79
REMARK   29  A    between atoms: _79  and  _80
REMARK   30  A    between atoms: _79  and  _82
REMARK   31  A    between atoms: _82  and  _83
REMARK   32  A    between atoms: _89  and  _91
REMARK   33  A    between atoms: _91  and  _92
REMARK   34  A    between atoms: _91  and  _94
REMARK   35  A    between atoms: _97  and  _99
REMARK   36  A    between atoms: _99  and  _100
REMARK   37  A    between atoms: _99  and  _102
REMARK   38  A    between atoms: _102  and  _103
REMARK   39  A    between atoms: _105  and  _107
REMARK   40  A    between atoms: _107  and  _108
REMARK   41  A    between atoms: _107  and  _110
REMARK   42  A    between atoms: _110  and  _111
REMARK   43  A    between atoms: _111  and  _112
REMARK   44  A    between atoms: _112  and  _113
REMARK   45  A    between atoms: _113  and  _114
REMARK   46  A    between atoms: _118  and  _120
REMARK   47  A    between atoms: _120  and  _121
REMARK   48  A    between atoms: _120  and  _123
REMARK   49  A    between atoms: _123  and  _124
REMARK   50  A    between atoms: _127  and  _129
REMARK   51  A    between atoms: _129  and  _130
REMARK   52  A    between atoms: _132  and  _134
REMARK   53  A    between atoms: _134  and  _135
REMARK   54  A    between atoms: _134  and  _137
REMARK   55  A    between atoms: _137  and  _138
REMARK   56  A    between atoms: _148  and  _150
REMARK   57  A    between atoms: _150  and  _151
REMARK   58  A    between atoms: _154  and  _156
REMARK   59  A    between atoms: _156  and  _157
REMARK   60  A    between atoms: _156  and  _159
REMARK   61  A    between atoms: _159  and  _160
REMARK   62  A    between atoms: _166  and  _168
REMARK   63  A    between atoms: _168  and  _169
REMARK   64  A    between atoms: _168  and  _171
REMARK   65  A    between atoms: _173  and  _175
REMARK   66  A    between atoms: _175  and  _176
REMARK   67  A    between atoms: _175  and  _178
REMARK   68  A    between atoms: _178  and  _179
REMARK   69  A    between atoms: _181  and  _183
REMARK   70  A    between atoms: _183  and  _184
REMARK   71  A    between atoms: _186  and  _188
REMARK   72  A    between atoms: _188  and  _189
REMARK   73  A    between atoms: _191  and  _193
REMARK   74  A    between atoms: _193  and  _194
REMARK   75  A    between atoms: _193  and  _196
REMARK   76  A    between atoms: _196  and  _197
REMARK   77  A    between atoms: _200  and  _202
REMARK   78  A    between atoms: _202  and  _203
REMARK   79  A    between atoms: _202  and  _205
REMARK   80  A    between atoms: _205  and  _206
REMARK   81  A    between atoms: _206  and  _207
REMARK   82  A    between atoms: _212  and  _214
REMARK   83  A    between atoms: _214  and  _215
REMARK   84  A    between atoms: _214  and  _217
REMARK   85  A    between atoms: _217  and  _218
REMARK   86  A    between atoms: _218  and  _219
REMARK   87  A    between atoms: _219  and  _220
REMARK   88  A    between atoms: _229  and  _231
REMARK   89  A    between atoms: _231  and  _232
REMARK   90  A    between atoms: _231  and  _234
REMARK   91  A    between atoms: _234  and  _235
REMARK   92  A    between atoms: _238  and  _240
REMARK   93  A    between atoms: _240  and  _241
REMARK   94  A    between atoms: _240  and  _243
REMARK   95  A    between atoms: _243  and  _244
REMARK   96  A    between atoms: _244  and  _245
REMARK   97  A    between atoms: _245  and  _246
REMARK   98  A    between atoms: _255  and  _257
REMARK   99  A    between atoms: _257  and  _258
REMARK  100  A    between atoms: _260  and  _262
REMARK  101  A    between atoms: _262  and  _263
REMARK  102  A    between atoms: _262  and  _265
REMARK  103  A    between atoms: _265  and  _266
REMARK  104  A    between atoms: _271  and  _272
REMARK  105  A    between atoms: _274  and  _276
REMARK  106  A    between atoms: _276  and  _277
REMARK  107  A    between atoms: _276  and  _279
REMARK  108  A    between atoms: _279  and  _280
REMARK  109  A    between atoms: _283  and  _285
REMARK  110  A    between atoms: _285  and  _286
REMARK  111  A    between atoms: _285  and  _288
REMARK  112  A    between atoms: _288  and  _289
REMARK  113  A    between atoms: _289  and  _290
REMARK  114  A    between atoms: _290  and  _291
REMARK  115  A    between atoms: _300  and  _302
REMARK  116  A    between atoms: _302  and  _303
REMARK  117  A    between atoms: _302  and  _305
REMARK  118  A    between atoms: _305  and  _306
REMARK  119  A    between atoms: _309  and  _311
REMARK  120  A    between atoms: _311  and  _312
REMARK  121  A    between atoms: _311  and  _314
REMARK  122  A    between atoms: _314  and  _315
REMARK  123  A    between atoms: _320  and  _322
REMARK  124  A    between atoms: _322  and  _323
REMARK  125  A    between atoms: _322  and  _325
REMARK  126  A    between atoms: _325  and  _326
REMARK  127  A    between atoms: _329  and  _331
REMARK  128  A    between atoms: _331  and  _332
REMARK  129  A    between atoms: _331  and  _334
REMARK  130  A    between atoms: _334  and  _335
REMARK  131  A    between atoms: _338  and  _340
REMARK  132  A    between atoms: _340  and  _341
REMARK  133  A    between atoms: _340  and  _343
REMARK  134  A    between atoms: _343  and  _344
REMARK  135  A    between atoms: _344  and  _345
REMARK  136  A    between atoms: _348  and  _350
REMARK  137  A    between atoms: _350  and  _351
REMARK  138  A    between atoms: _350  and  _353
REMARK  139  A    between atoms: _353  and  _354
REMARK  140  A    between atoms: _354  and  _355
REMARK  141  A    between atoms: _360  and  _362
REMARK  142  A    between atoms: _362  and  _363
REMARK  143  A    between atoms: _365  and  _367
REMARK  144  A    between atoms: _367  and  _368
REMARK  145  A    between atoms: _367  and  _370
REMARK  146  A    between atoms: _370  and  _371
REMARK  147  A    between atoms: _381  and  _383
REMARK  148  A    between atoms: _383  and  _384
REMARK  149  A    between atoms: _387  and  _389
REMARK  150  A    between atoms: _389  and  _390
REMARK  151  A    between atoms: _393  and  _395
REMARK  152  A    between atoms: _395  and  _396
REMARK  153  A    between atoms: _398  and  _400
REMARK  154  A    between atoms: _400  and  _401
REMARK  155  A    between atoms: _403  and  _405
REMARK  156  A    between atoms: _405  and  _406
REMARK  157  A    between atoms: _408  and  _410
REMARK  158  A    between atoms: _410  and  _411
REMARK  159  A    between atoms: _410  and  _413
REMARK  160  A    between atoms: _413  and  _414
REMARK  161  A    between atoms: _419  and  _421
REMARK  162  A    between atoms: _421  and  _422
REMARK  163  A    between atoms: _421  and  _424
REMARK  164  A    between atoms: _424  and  _425
REMARK  165  A    between atoms: _427  and  _429
REMARK  166  A    between atoms: _429  and  _430
REMARK  167  A    between atoms: _429  and  _432
REMARK  168  A    between atoms: _432  and  _433
REMARK  169  A    between atoms: _436  and  _438
REMARK  170  A    between atoms: _438  and  _439
REMARK  171  A    between atoms: _438  and  _441
REMARK  172  A    between atoms: _441  and  _442
REMARK  173  A    between atoms: _442  and  _443
REMARK  174  A    between atoms: _443  and  _444
REMARK  175  A    between atoms: _453  and  _455
REMARK  176  A    between atoms: _455  and  _456
REMARK  177  A    between atoms: _455  and  _458
REMARK  178  A    between atoms: _458  and  _459
REMARK  179  A    between atoms: _465  and  _467
REMARK  180  A    between atoms: _467  and  _468
REMARK  181  A    between atoms: _467  and  _470
REMARK  182  A    between atoms: _470  and  _471
REMARK  183  A    between atoms: _471  and  _472
REMARK  184  A    between atoms: _472  and  _473
REMARK  185  A    between atoms: _473  and  _474
REMARK  186  A    between atoms: _478  and  _480
REMARK  187  A    between atoms: _480  and  _481
REMARK  188  A    between atoms: _480  and  _483
REMARK  189  A    between atoms: _483  and  _484
REMARK  190  A    between atoms: _484  and  _485
REMARK  191  A    between atoms: _490  and  _492
REMARK  192  A    between atoms: _492  and  _493
REMARK  193  A    between atoms: _492  and  _495
REMARK  194  A    between atoms: _495  and  _496
REMARK  195  A    between atoms: _499  and  _501
REMARK  196  A    between atoms: _501  and  _502
REMARK  197  A    between atoms: _501  and  _504
REMARK  198  A    between atoms: _504  and  _505
REMARK  199  A    between atoms: _508  and  _510
REMARK  200  A    between atoms: _510  and  _511
REMARK  201  A    between atoms: _514  and  _516
REMARK  202  A    between atoms: _516  and  _517
REMARK  203  A    between atoms: _516  and  _519
REMARK  204  A    between atoms: _519  and  _520
REMARK  205  A    between atoms: _523  and  _525
REMARK  206  A    between atoms: _525  and  _526
REMARK  207  A    between atoms: _525  and  _528
REMARK  208  A    between atoms: _531  and  _533
REMARK  209  A    between atoms: _533  and  _534
REMARK  210  A    between atoms: _536  and  _538
REMARK  211  A    between atoms: _538  and  _539
REMARK  212  A    between atoms: _538  and  _541
REMARK  213  A    between atoms: _541  and  _542
REMARK  214  A    between atoms: _544  and  _546
REMARK  215  A    between atoms: _546  and  _547
REMARK  216  A    between atoms: _546  and  _549
REMARK  217  A    between atoms: _549  and  _550
REMARK  218  A    between atoms: _556  and  _558
REMARK  219  A    between atoms: _558  and  _559
REMARK  220  A    between atoms: _558  and  _561
REMARK  221  A    between atoms: _561  and  _562
REMARK  222  A    between atoms: _565  and  _567
REMARK  223  A    between atoms: _567  and  _568
REMARK  224  A    between atoms: _570  and  _572
REMARK  225  A    between atoms: _572  and  _573
REMARK  226  A    between atoms: _575  and  _577
REMARK  227  A    between atoms: _577  and  _578
REMARK  228  A    between atoms: _577  and  _580
REMARK  229  A    between atoms: _580  and  _581
REMARK  230  A    between atoms: _586  and  _587
REMARK  231  A    between atoms: _589  and  _591
REMARK  232  A    between atoms: _591  and  _592
REMARK  233  A    between atoms: _594  and  _596
REMARK  234  A    between atoms: _596  and  _597
REMARK  235  A    between atoms: _596  and  _599
REMARK  236  A    between atoms: _599  and  _600
REMARK  237  A    between atoms: _606  and  _608
REMARK  238  A    between atoms: _608  and  _609
REMARK  239  A    between atoms: _608  and  _611
REMARK  240  A    between atoms: _611  and  _612
REMARK  241  A    between atoms: _615  and  _617
REMARK  242  A    between atoms: _617  and  _618
REMARK  243  A    between atoms: _617  and  _620
REMARK  244  A    between atoms: _620  and  _621
REMARK  245  A    between atoms: _621  and  _622
REMARK  246  A    between atoms: _627  and  _629
REMARK  247  A    between atoms: _629  and  _630
REMARK  248  A    between atoms: _633  and  _635
REMARK  249  A    between atoms: _635  and  _636
REMARK  250  A    between atoms: _638  and  _640
REMARK  251  A    between atoms: _640  and  _641
REMARK  252  A    between atoms: _640  and  _643
REMARK  253  A    between atoms: _643  and  _644
REMARK  254  A    between atoms: _644  and  _645
REMARK  255  A    between atoms: _648  and  _650
REMARK  256  A    between atoms: _650  and  _651
REMARK  257  A    between atoms: _650  and  _653
REMARK  258  A    between atoms: _653  and  _654
REMARK  259  A    between atoms: _657  and  _659
REMARK  260  A    between atoms: _659  and  _660
REMARK  261  A    between atoms: _659  and  _662
REMARK  262  A    between atoms: _662  and  _663
REMARK  263  A    between atoms: _663  and  _664
REMARK  264  A    between atoms: _664  and  _665
REMARK  265  A    between atoms: _674  and  _676
REMARK  266  A    between atoms: _676  and  _677
REMARK  267  A    between atoms: _676  and  _679
REMARK  268  A    between atoms: _679  and  _680
REMARK  269  A    between atoms: _685  and  _686
REMARK  270  A    between atoms: _688  and  _690
REMARK  271  A    between atoms: _690  and  _691
REMARK  272  A    between atoms: _693  and  _695
REMARK  273  A    between atoms: _695  and  _696
REMARK  274  A    between atoms: _695  and  _698
REMARK  275  A    between atoms: _698  and  _699
REMARK  276  A    between atoms: _705  and  _707
REMARK  277  A    between atoms: _707  and  _708
REMARK  278  A    between atoms: _707  and  _710
REMARK  279  A    between atoms: _710  and  _711
REMARK  280  A    between atoms: _714  and  _716
REMARK  281  A    between atoms: _716  and  _717
REMARK  282  A    between atoms: _716  and  _719
REMARK  283  A    between atoms: _719  and  _720
REMARK  284  A    between atoms: _720  and  _721
REMARK  285  A    between atoms: _726  and  _728
REMARK  286  A    between atoms: _728  and  _729
REMARK  287  A    between atoms: _728  and  _731
REMARK  288  A    between atoms: _731  and  _732
REMARK  289  A    between atoms: _732  and  _733
REMARK  290  A    between atoms: _733  and  _734
REMARK  291  A    between atoms: _734  and  _735
REMARK                            x       y       z     vdW  Elec       q    Type
REMARK                         _______ _______ _______ _____ _____    ______ ____
ROOT
ATOM      1  CB  GLN A   1      37.644  -7.617 175.114  0.00  0.00    +0.035 C 
ENDROOT
BRANCH   1   2
ATOM      2  CA  GLN A   1      37.826  -9.012 174.515  0.00  0.00    +0.134 C 
BRANCH   2   3
ATOM      3  N   GLN A   1      38.880  -9.040 173.504  0.00  0.00    -0.239 NA
ATOM      4  H   GLN A   1      39.430  -8.181 173.301  0.00  0.00    +0.142 HD
ENDBRANCH   2   3
BRANCH   2   5
ATOM      5  C   GLN A   1      36.482  -9.487 173.963  0.00  0.00    +0.224 C 
ATOM      6  O   GLN A   1      35.782 -10.260 174.604  0.00  0.00    -0.287 OA
ENDBRANCH   2   5
ENDBRANCH   1   2
BRANCH   1   7
ATOM      7  CG  GLN A   1      36.673  -7.633 176.298  0.00  0.00    +0.087 C 
BRANCH   7   8
ATOM      8  CD  GLN A   1      35.810  -6.388 176.398  0.00  0.00    +0.219 C 
ATOM      9  NE2 GLN A   1      35.655  -5.877 177.617  0.00  0.00    -0.329 N 
ATOM     10 HE21 GLN A   1      36.108  -6.334 178.434  0.00  0.00    +0.145 HD
ATOM     11 HE22 GLN A   1      35.081  -5.020 177.753  0.00  0.00    +0.145 HD
ATOM     12  OE1 GLN A   1      35.295  -5.885 175.394  0.00  0.00    -0.275 OA
ENDBRANCH   7   8
ENDBRANCH   1   7
TORSDOF 5
REMARK  Name = ../refined-set-2016/4qij/4qij_pocket.pdb
REMARK  291 active torsions:
REMARK  status: ('A' for Active; 'I' for Inactive)
REMARK    1  A    between atoms: _1  and  _3
REMARK    2  A    between atoms: _3  and  _4
REMARK    3  A    between atoms: _3  and  _6
REMARK    4  A    between atoms: _6  and  _7
REMARK    5  A    between atoms: _7  and  _8
REMARK    6  A    between atoms: _8  and  _9
REMARK    7  A    between atoms: _19  and  _20
REMARK    8  A    between atoms: _25  and  _27
REMARK    9  A    between atoms: _27  and  _28
REMARK   10  A    between atoms: _27  and  _30
REMARK   11  A    between atoms: _30  and  _31
REMARK   12  A    between atoms: _31  and  _32
REMARK   13  A    between atoms: _35  and  _37
REMARK   14  A    between atoms: _37  and  _38
REMARK   15  A    between atoms: _37  and  _40
REMARK   16  A    between atoms: _43  and  _45
REMARK   17  A    between atoms: _45  and  _46
REMARK   18  A    between atoms: _45  and  _48
REMARK   19  A    between atoms: _48  and  _49
REMARK   20  A    between atoms: _49  and  _50
REMARK   21  A    between atoms: _50  and  _51
REMARK   22  A    between atoms: _60  and  _62
REMARK   23  A    between atoms: _62  and  _63
REMARK   24  A    between atoms: _62  and  _65
REMARK   25  A    between atoms: _65  and  _66
REMARK   26  A    between atoms: _71  and  _73
REMARK   27  A    between atoms: _73  and  _74
REMARK   28  A    between atoms: _77  and  _79
REMARK   29  A    between atoms: _79  and  _80
REMARK   30  A    between atoms: _79  and  _82
REMARK   31  A    between atoms: _82  and  _83
REMARK   32  A    between atoms: _89  and  _91
REMARK   33  A    between atoms: _91  and  _92
REMARK   34  A    between atoms: _91  and  _94
REMARK   35  A    between atoms: _97  and  _99
REMARK   36  A    between atoms: _99  and  _100
REMARK   37  A    between atoms: _99  and  _102
REMARK   38  A    between atoms: _102  and  _103
REMARK   39  A    between atoms: _105  and  _107
REMARK   40  A    between atoms: _107  and  _108
REMARK   41  A    between atoms: _107  and  _110
REMARK   42  A    between atoms: _110  and  _111
REMARK   43  A    between atoms: _111  and  _112
REMARK   44  A    between atoms: _112  and  _113
REMARK   45  A    between atoms: _113  and  _114
REMARK   46  A    between atoms: _118  and  _120
REMARK   47  A    between atoms: _120  and  _121
REMARK   48  A    between atoms: _120  and  _123
REMARK   49  A    between atoms: _123  and  _124
REMARK   50  A    between atoms: _127  and  _129
REMARK   51  A    between atoms: _129  and  _130
REMARK   52  A    between atoms: _132  and  _134
REMARK   53  A    between atoms: _134  and  _135
REMARK   54  A    between atoms: _134  and  _137
REMARK   55  A    between atoms: _137  and  _138
REMARK   56  A    between atoms: _148  and  _150
REMARK   57  A    between atoms: _150  and  _151
REMARK   58  A    between atoms: _154  and  _156
REMARK   59  A    between atoms: _156  and  _157
REMARK   60  A    between atoms: _156  and  _159
REMARK   61  A    between atoms: _159  and  _160
REMARK   62  A    between atoms: _166  and  _168
REMARK   63  A    between atoms: _168  and  _169
REMARK   64  A    between atoms: _168  and  _171
REMARK   65  A    between atoms: _173  and  _175
REMARK   66  A    between atoms: _175  and  _176
REMARK   67  A    between atoms: _175  and  _178
REMARK   68  A    between atoms: _178  and  _179
REMARK   69  A    between atoms: _181  and  _183
REMARK   70  A    between atoms: _183  and  _184
REMARK   71  A    between atoms: _186  and  _188
REMARK   72  A    between atoms: _188  and  _189
REMARK   73  A    between atoms: _191  and  _193
REMARK   74  A    between atoms: _193  and  _194
REMARK   75  A    between atoms: _193  and  _196
REMARK   76  A    between atoms: _196  and  _197
REMARK   77  A    between atoms: _200  and  _202
REMARK   78  A    between atoms: _202  and  _203
REMARK   79  A    between atoms: _202  and  _205
REMARK   80  A    between atoms: _205  and  _206
REMARK   81  A    between atoms: _206  and  _207
REMARK   82  A    between atoms: _212  and  _214
REMARK   83  A    between atoms: _214  and  _215
REMARK   84  A    between atoms: _214  and  _217
REMARK   85  A    between atoms: _217  and  _218
REMARK   86  A    between atoms: _218  and  _219
REMARK   87  A    between atoms: _219  and  _220
REMARK   88  A    between atoms: _229  and  _231
REMARK   89  A    between atoms: _231  and  _232
REMARK   90  A    between atoms: _231  and  _234
REMARK   91  A    between atoms: _234  and  _235
REMARK   92  A    between atoms: _238  and  _240
REMARK   93  A    between atoms: _240  and  _241
REMARK   94  A    between atoms: _240  and  _243
REMARK   95  A    between atoms: _243  and  _244
REMARK   96  A    between atoms: _244  and  _245
REMARK   97  A    between atoms: _245  and  _246
REMARK   98  A    between atoms: _255  and  _257
REMARK   99  A    between atoms: _257  and  _258
REMARK  100  A    between atoms: _260  and  _262
REMARK  101  A    between atoms: _262  and  _263
REMARK  102  A    between atoms: _262  and  _265
REMARK  103  A    between atoms: _265  and  _266
REMARK  104  A    between atoms: _271  and  _272
REMARK  105  A    between atoms: _274  and  _276
REMARK  106  A    between atoms: _276  and  _277
REMARK  107  A    between atoms: _276  and  _279
REMARK  108  A    between atoms: _279  and  _280
REMARK  109  A    between atoms: _283  and  _285
REMARK  110  A    between atoms: _285  and  _286
REMARK  111  A    between atoms: _285  and  _288
REMARK  112  A    between atoms: _288  and  _289
REMARK  113  A    between atoms: _289  and  _290
REMARK  114  A    between atoms: _290  and  _291
REMARK  115  A    between atoms: _300  and  _302
REMARK  116  A    between atoms: _302  and  _303
REMARK  117  A    between atoms: _302  and  _305
REMARK  118  A    between atoms: _305  and  _306
REMARK  119  A    between atoms: _309  and  _311
REMARK  120  A    between atoms: _311  and  _312
REMARK  121  A    between atoms: _311  and  _314
REMARK  122  A    between atoms: _314  and  _315
REMARK  123  A    between atoms: _320  and  _322
REMARK  124  A    between atoms: _322  and  _323
REMARK  125  A    between atoms: _322  and  _325
REMARK  126  A    between atoms: _325  and  _326
REMARK  127  A    between atoms: _329  and  _331
REMARK  128  A    between atoms: _331  and  _332
REMARK  129  A    between atoms: _331  and  _334
REMARK  130  A    between atoms: _334  and  _335
REMARK  131  A    between atoms: _338  and  _340
REMARK  132  A    between atoms: _340  and  _341
REMARK  133  A    between atoms: _340  and  _343
REMARK  134  A    between atoms: _343  and  _344
REMARK  135  A    between atoms: _344  and  _345
REMARK  136  A    between atoms: _348  and  _350
REMARK  137  A    between atoms: _350  and  _351
REMARK  138  A    between atoms: _350  and  _353
REMARK  139  A    between atoms: _353  and  _354
REMARK  140  A    between atoms: _354  and  _355
REMARK  141  A    between atoms: _360  and  _362
REMARK  142  A    between atoms: _362  and  _363
REMARK  143  A    between atoms: _365  and  _367
REMARK  144  A    between atoms: _367  and  _368
REMARK  145  A    between atoms: _367  and  _370
REMARK  146  A    between atoms: _370  and  _371
REMARK  147  A    between atoms: _381  and  _383
REMARK  148  A    between atoms: _383  and  _384
REMARK  149  A    between atoms: _387  and  _389
REMARK  150  A    between atoms: _389  and  _390
REMARK  151  A    between atoms: _393  and  _395
REMARK  152  A    between atoms: _395  and  _396
REMARK  153  A    between atoms: _398  and  _400
REMARK  154  A    between atoms: _400  and  _401
REMARK  155  A    between atoms: _403  and  _405
REMARK  156  A    between atoms: _405  and  _406
REMARK  157  A    between atoms: _408  and  _410
REMARK  158  A    between atoms: _410  and  _411
REMARK  159  A    between atoms: _410  and  _413
REMARK  160  A    between atoms: _413  and  _414
REMARK  161  A    between atoms: _419  and  _421
REMARK  162  A    between atoms: _421  and  _422
REMARK  163  A    between atoms: _421  and  _424
REMARK  164  A    between atoms: _424  and  _425
REMARK  165  A    between atoms: _427  and  _429
REMARK  166  A    between atoms: _429  and  _430
REMARK  167  A    between atoms: _429  and  _432
REMARK  168  A    between atoms: _432  and  _433
REMARK  169  A    between atoms: _436  and  _438
REMARK  170  A    between atoms: _438  and  _439
REMARK  171  A    between atoms: _438  and  _441
REMARK  172  A    between atoms: _441  and  _442
REMARK  173  A    between atoms: _442  and  _443
REMARK  174  A    between atoms: _443  and  _444
REMARK  175  A    between atoms: _453  and  _455
REMARK  176  A    between atoms: _455  and  _456
REMARK  177  A    between atoms: _455  and  _458
REMARK  178  A    between atoms: _458  and  _459
REMARK  179  A    between atoms: _465  and  _467
REMARK  180  A    between atoms: _467  and  _468
REMARK  181  A    between atoms: _467  and  _470
REMARK  182  A    between atoms: _470  and  _471
REMARK  183  A    between atoms: _471  and  _472
REMARK  184  A    between atoms: _472  and  _473
REMARK  185  A    between atoms: _473  and  _474
REMARK  186  A    between atoms: _478  and  _480
REMARK  187  A    between atoms: _480  and  _481
REMARK  188  A    between atoms: _480  and  _483
REMARK  189  A    between atoms: _483  and  _484
REMARK  190  A    between atoms: _484  and  _485
REMARK  191  A    between atoms: _490  and  _492
REMARK  192  A    between atoms: _492  and  _493
REMARK  193  A    between atoms: _492  and  _495
REMARK  194  A    between atoms: _495  and  _496
REMARK  195  A    between atoms: _499  and  _501
REMARK  196  A    between atoms: _501  and  _502
REMARK  197  A    between atoms: _501  and  _504
REMARK  198  A    between atoms: _504  and  _505
REMARK  199  A    between atoms: _508  and  _510
REMARK  200  A    between atoms: _510  and  _511
REMARK  201  A    between atoms: _514  and  _516
REMARK  202  A    between atoms: _516  and  _517
REMARK  203  A    between atoms: _516  and  _519
REMARK  204  A    between atoms: _519  and  _520
REMARK  205  A    between atoms: _523  and  _525
REMARK  206  A    between atoms: _525  and  _526
REMARK  207  A    between atoms: _525  and  _528
REMARK  208  A    between atoms: _531  and  _533
REMARK  209  A    between atoms: _533  and  _534
REMARK  210  A    between atoms: _536  and  _538
REMARK  211  A    between atoms: _538  and  _539
REMARK  212  A    between atoms: _538  and  _541
REMARK  213  A    between atoms: _541  and  _542
REMARK  214  A    between atoms: _544  and  _546
REMARK  215  A    between atoms: _546  and  _547
REMARK  216  A    between atoms: _546  and  _549
REMARK  217  A    between atoms: _549  and  _550
REMARK  218  A    between atoms: _556  and  _558
REMARK  219  A    between atoms: _558  and  _559
REMARK  220  A    between atoms: _558  and  _561
REMARK  221  A    between atoms: _561  and  _562
REMARK  222  A    between atoms: _565  and  _567
REMARK  223  A    between atoms: _567  and  _568
REMARK  224  A    between atoms: _570  and  _572
REMARK  225  A    between atoms: _572  and  _573
REMARK  226  A    between atoms: _575  and  _577
REMARK  227  A    between atoms: _577  and  _578
REMARK  228  A    between atoms: _577  and  _580
REMARK  229  A    between atoms: _580  and  _581
REMARK  230  A    between atoms: _586  and  _587
REMARK  231  A    between atoms: _589  and  _591
REMARK  232  A    between atoms: _591  and  _592
REMARK  233  A    between atoms: _594  and  _596
REMARK  234  A    between atoms: _596  and  _597
REMARK  235  A    between atoms: _596  and  _599
REMARK  236  A    between atoms: _599  and  _600
REMARK  237  A    between atoms: _606  and  _608
REMARK  238  A    between atoms: _608  and  _609
REMARK  239  A    between atoms: _608  and  _611
REMARK  240  A    between atoms: _611  and  _612
REMARK  241  A    between atoms: _615  and  _617
REMARK  242  A    between atoms: _617  and  _618
REMARK  243  A    between atoms: _617  and  _620
REMARK  244  A    between atoms: _620  and  _621
REMARK  245  A    between atoms: _621  and  _622
REMARK  246  A    between atoms: _627  and  _629
REMARK  247  A    between atoms: _629  and  _630
REMARK  248  A    between atoms: _633  and  _635
REMARK  249  A    between atoms: _635  and  _636
REMARK  250  A    between atoms: _638  and  _640
REMARK  251  A    between atoms: _640  and  _641
REMARK  252  A    between atoms: _640  and  _643
REMARK  253  A    between atoms: _643  and  _644
REMARK  254  A    between atoms: _644  and  _645
REMARK  255  A    between atoms: _648  and  _650
REMARK  256  A    between atoms: _650  and  _651
REMARK  257  A    between atoms: _650  and  _653
REMARK  258  A    between atoms: _653  and  _654
REMARK  259  A    between atoms: _657  and  _659
REMARK  260  A    between atoms: _659  and  _660
REMARK  261  A    between atoms: _659  and  _662
REMARK  262  A    between atoms: _662  and  _663
REMARK  263  A    between atoms: _663  and  _664
REMARK  264  A    between atoms: _664  and  _665
REMARK  265  A    between atoms: _674  and  _676
REMARK  266  A    between atoms: _676  and  _677
REMARK  267  A    between atoms: _676  and  _679
REMARK  268  A    between atoms: _679  and  _680
REMARK  269  A    between atoms: _685  and  _686
REMARK  270  A    between atoms: _688  and  _690
REMARK  271  A    between atoms: _690  and  _691
REMARK  272  A    between atoms: _693  and  _695
REMARK  273  A    between atoms: _695  and  _696
REMARK  274  A    between atoms: _695  and  _698
REMARK  275  A    between atoms: _698  and  _699
REMARK  276  A    between atoms: _705  and  _707
REMARK  277  A    between atoms: _707  and  _708
REMARK  278  A    between atoms: _707  and  _710
REMARK  279  A    between atoms: _710  and  _711
REMARK  280  A    between atoms: _714  and  _716
REMARK  281  A    between atoms: _716  and  _717
REMARK  282  A    between atoms: _716  and  _719
REMARK  283  A    between atoms: _719  and  _720
REMARK  284  A    between atoms: _720  and  _721
REMARK  285  A    between atoms: _726  and  _728
REMARK  286  A    between atoms: _728  and  _729
REMARK  287  A    between atoms: _728  and  _731
REMARK  288  A    between atoms: _731  and  _732
REMARK  289  A    between atoms: _732  and  _733
REMARK  290  A    between atoms: _733  and  _734
REMARK  291  A    between atoms: _734  and  _735
REMARK                            x       y       z     vdW  Elec       q    Type
REMARK                         _______ _______ _______ _____ _____    ______ ____
ROOT
ATOM      1  C   GLY A   2      32.578 -13.948 174.961  0.00  0.00    +0.243 C 
ATOM      2  O   GLY A   2      31.877 -14.620 175.724  0.00  0.00    -0.273 OA
ATOM      3  N   GLU A   3      32.536 -14.070 173.641  0.00  0.00    -0.298 N 
ATOM      4  H   GLU A   3      33.148 -13.466 173.056  0.00  0.00    +0.150 HD
ENDROOT
BRANCH   1   5
ATOM      5  CA  GLY A   2      33.579 -12.944 175.491  0.00  0.00    +0.176 C 
BRANCH   5   8
ATOM      6  C   ALA A   1      35.548 -14.211 174.810  0.00  0.00    +0.238 C 
ATOM      7  O   ALA A   1      35.208 -15.199 175.462  0.00  0.00    -0.274 OA
ATOM      8  N   GLY A   2      34.850 -13.080 174.796  0.00  0.00    -0.296 N 
ATOM      9  H   GLY A   2      35.225 -12.265 174.271  0.00  0.00    +0.150 HD
BRANCH   6  10
ATOM     10  CA  ALA A   1      36.830 -14.227 173.977  0.00  0.00    +0.145 C 
ATOM     11  CB  ALA A   1      38.009 -13.770 174.833  0.00  0.00    +0.028 C 
BRANCH  10  12
ATOM     12  N   ALA A   1      36.717 -13.392 172.785  0.00  0.00    -0.238 NA
ATOM     13  H   ALA A   1      37.335 -12.562 172.685  0.00  0.00    +0.142 HD
ENDBRANCH  10  12
ENDBRANCH   6  10
ENDBRANCH   5   8
ENDBRANCH   1   5
BRANCH   3  14
ATOM     14  CA  GLU A   3      31.653 -15.030 172.991  0.00  0.00    +0.137 C 
BRANCH  14  15
ATOM     15  C   GLU A   3      32.106 -16.462 173.261  0.00  0.00    +0.227 C 
ATOM     16  O   GLU A   3      31.277 -17.357 173.446  0.00  0.00    -0.286 OA
ENDBRANCH  14  15
BRANCH  14  17
ATOM     17  CB  GLU A   3      31.611 -14.769 171.482  0.00  0.00    +0.039 C 
BRANCH  17  18
ATOM     18  CG  GLU A   3      30.874 -13.493 171.105  0.00  0.00    +0.116 C 
BRANCH  18  19
ATOM     19  CD  GLU A   3      29.521 -13.366 171.787  0.00  0.00    +0.365 C 
ATOM     20  OE2 GLU A   3      29.304 -12.351 172.482  0.00  0.00    -0.246 OA
ATOM     21  OE1 GLU A   3      28.696 -14.295 171.664  0.00  0.00    -0.246 OA
ENDBRANCH  18  19
ENDBRANCH  17  18
ENDBRANCH  14  17
ENDBRANCH   3  14
TORSDOF 9
REMARK  Name = ../refined-set-2016/4qij/4qij_pocket.pdb
REMARK  291 active torsions:
REMARK  status: ('A' for Active; 'I' for Inactive)
REMARK    1  A    between atoms: _1  and  _3
REMARK    2  A    between atoms: _3  and  _4
REMARK    3  A    between atoms: _3  and  _6
REMARK    4  A    between atoms: _6  and  _7
REMARK    5  A    between atoms: _7  and  _8
REMARK    6  A    between atoms: _8  and  _9
REMARK    7  A    between atoms: _19  and  _20
REMARK    8  A    between atoms: _25  and  _27
REMARK    9  A    between atoms: _27  and  _28
REMARK   10  A    between atoms: _27  and  _30
REMARK   11  A    between atoms: _30  and  _31
REMARK   12  A    between atoms: _31  and  _32
REMARK   13  A    between atoms: _35  and  _37
REMARK   14  A    between atoms: _37  and  _38
REMARK   15  A    between atoms: _37  and  _40
REMARK   16  A    between atoms: _43  and  _45
REMARK   17  A    between atoms: _45  and  _46
REMARK   18  A    between atoms: _45  and  _48
REMARK   19  A    between atoms: _48  and  _49
REMARK   20  A    between atoms: _49  and  _50
REMARK   21  A    between atoms: _50  and  _51
REMARK   22  A    between atoms: _60  and  _62
REMARK   23  A    between atoms: _62  and  _63
REMARK   24  A    between atoms: _62  and  _65
REMARK   25  A    between atoms: _65  and  _66
REMARK   26  A    between atoms: _71  and  _73
REMARK   27  A    between atoms: _73  and  _74
REMARK   28  A    between atoms: _77  and  _79
REMARK   29  A    between atoms: _79  and  _80
REMARK   30  A    between atoms: _79  and  _82
REMARK   31  A    between atoms: _82  and  _83
REMARK   32  A    between atoms: _89  and  _91
REMARK   33  A    between atoms: _91  and  _92
REMARK   34  A    between atoms: _91  and  _94
REMARK   35  A    between atoms: _97  and  _99
REMARK   36  A    between atoms: _99  and  _100
REMARK   37  A    between atoms: _99  and  _102
REMARK   38  A    between atoms: _102  and  _103
REMARK   39  A    between atoms: _105  and  _107
REMARK   40  A    between atoms: _107  and  _108
REMARK   41  A    between atoms: _107  and  _110
REMARK   42  A    between atoms: _110  and  _111
REMARK   43  A    between atoms: _111  and  _112
REMARK   44  A    between atoms: _112  and  _113
REMARK   45  A    between atoms: _113  and  _114
REMARK   46  A    between atoms: _118  and  _120
REMARK   47  A    between atoms: _120  and  _121
REMARK   48  A    between atoms: _120  and  _123
REMARK   49  A    between atoms: _123  and  _124
REMARK   50  A    between atoms: _127  and  _129
REMARK   51  A    between atoms: _129  and  _130
REMARK   52  A    between atoms: _132  and  _134
REMARK   53  A    between atoms: _134  and  _135
REMARK   54  A    between atoms: _134  and  _137
REMARK   55  A    between atoms: _137  and  _138
REMARK   56  A    between atoms: _148  and  _150
REMARK   57  A    between atoms: _150  and  _151
REMARK   58  A    between atoms: _154  and  _156
REMARK   59  A    between atoms: _156  and  _157
REMARK   60  A    between atoms: _156  and  _159
REMARK   61  A    between atoms: _159  and  _160
REMARK   62  A    between atoms: _166  and  _168
REMARK   63  A    between atoms: _168  and  _169
REMARK   64  A    between atoms: _168  and  _171
REMARK   65  A    between atoms: _173  and  _175
REMARK   66  A    between atoms: _175  and  _176
REMARK   67  A    between atoms: _175  and  _178
REMARK   68  A    between atoms: _178  and  _179
REMARK   69  A    between atoms: _181  and  _183
REMARK   70  A    between atoms: _183  and  _184
REMARK   71  A    between atoms: _186  and  _188
REMARK   72  A    between atoms: _188  and  _189
REMARK   73  A    between atoms: _191  and  _193
REMARK   74  A    between atoms: _193  and  _194
REMARK   75  A    between atoms: _193  and  _196
REMARK   76  A    between atoms: _196  and  _197
REMARK   77  A    between atoms: _200  and  _202
REMARK   78  A    between atoms: _202  and  _203
REMARK   79  A    between atoms: _202  and  _205
REMARK   80  A    between atoms: _205  and  _206
REMARK   81  A    between atoms: _206  and  _207
REMARK   82  A    between atoms: _212  and  _214
REMARK   83  A    between atoms: _214  and  _215
REMARK   84  A    between atoms: _214  and  _217
REMARK   85  A    between atoms: _217  and  _218
REMARK   86  A    between atoms: _218  and  _219
REMARK   87  A    between atoms: _219  and  _220
REMARK   88  A    between atoms: _229  and  _231
REMARK   89  A    between atoms: _231  and  _232
REMARK   90  A    between atoms: _231  and  _234
REMARK   91  A    between atoms: _234  and  _235
REMARK   92  A    between atoms: _238  and  _240
REMARK   93  A    between atoms: _240  and  _241
REMARK   94  A    between atoms: _240  and  _243
REMARK   95  A    between atoms: _243  and  _244
REMARK   96  A    between atoms: _244  and  _245
REMARK   97  A    between atoms: _245  and  _246
REMARK   98  A    between atoms: _255  and  _257
REMARK   99  A    between atoms: _257  and  _258
REMARK  100  A    between atoms: _260  and  _262
REMARK  101  A    between atoms: _262  and  _263
REMARK  102  A    between atoms: _262  and  _265
REMARK  103  A    between atoms: _265  and  _266
REMARK  104  A    between atoms: _271  and  _272
REMARK  105  A    between atoms: _274  and  _276
REMARK  106  A    between atoms: _276  and  _277
REMARK  107  A    between atoms: _276  and  _279
REMARK  108  A    between atoms: _279  and  _280
REMARK  109  A    between atoms: _283  and  _285
REMARK  110  A    between atoms: _285  and  _286
REMARK  111  A    between atoms: _285  and  _288
REMARK  112  A    between atoms: _288  and  _289
REMARK  113  A    between atoms: _289  and  _290
REMARK  114  A    between atoms: _290  and  _291
REMARK  115  A    between atoms: _300  and  _302
REMARK  116  A    between atoms: _302  and  _303
REMARK  117  A    between atoms: _302  and  _305
REMARK  118  A    between atoms: _305  and  _306
REMARK  119  A    between atoms: _309  and  _311
REMARK  120  A    between atoms: _311  and  _312
REMARK  121  A    between atoms: _311  and  _314
REMARK  122  A    between atoms: _314  and  _315
REMARK  123  A    between atoms: _320  and  _322
REMARK  124  A    between atoms: _322  and  _323
REMARK  125  A    between atoms: _322  and  _325
REMARK  126  A    between atoms: _325  and  _326
REMARK  127  A    between atoms: _329  and  _331
REMARK  128  A    between atoms: _331  and  _332
REMARK  129  A    between atoms: _331  and  _334
REMARK  130  A    between atoms: _334  and  _335
REMARK  131  A    between atoms: _338  and  _340
REMARK  132  A    between atoms: _340  and  _341
REMARK  133  A    between atoms: _340  and  _343
REMARK  134  A    between atoms: _343  and  _344
REMARK  135  A    between atoms: _344  and  _345
REMARK  136  A    between atoms: _348  and  _350
REMARK  137  A    between atoms: _350  and  _351
REMARK  138  A    between atoms: _350  and  _353
REMARK  139  A    between atoms: _353  and  _354
REMARK  140  A    between atoms: _354  and  _355
REMARK  141  A    between atoms: _360  and  _362
REMARK  142  A    between atoms: _362  and  _363
REMARK  143  A    between atoms: _365  and  _367
REMARK  144  A    between atoms: _367  and  _368
REMARK  145  A    between atoms: _367  and  _370
REMARK  146  A    between atoms: _370  and  _371
REMARK  147  A    between atoms: _381  and  _383
REMARK  148  A    between atoms: _383  and  _384
REMARK  149  A    between atoms: _387  and  _389
REMARK  150  A    between atoms: _389  and  _390
REMARK  151  A    between atoms: _393  and  _395
REMARK  152  A    between atoms: _395  and  _396
REMARK  153  A    between atoms: _398  and  _400
REMARK  154  A    between atoms: _400  and  _401
REMARK  155  A    between atoms: _403  and  _405
REMARK  156  A    between atoms: _405  and  _406
REMARK  157  A    between atoms: _408  and  _410
REMARK  158  A    between atoms: _410  and  _411
REMARK  159  A    between atoms: _410  and  _413
REMARK  160  A    between atoms: _413  and  _414
REMARK  161  A    between atoms: _419  and  _421
REMARK  162  A    between atoms: _421  and  _422
REMARK  163  A    between atoms: _421  and  _424
REMARK  164  A    between atoms: _424  and  _425
REMARK  165  A    between atoms: _427  and  _429
REMARK  166  A    between atoms: _429  and  _430
REMARK  167  A    between atoms: _429  and  _432
REMARK  168  A    between atoms: _432  and  _433
REMARK  169  A    between atoms: _436  and  _438
REMARK  170  A    between atoms: _438  and  _439
REMARK  171  A    between atoms: _438  and  _441
REMARK  172  A    between atoms: _441  and  _442
REMARK  173  A    between atoms: _442  and  _443
REMARK  174  A    between atoms: _443  and  _444
REMARK  175  A    between atoms: _453  and  _455
REMARK  176  A    between atoms: _455  and  _456
REMARK  177  A    between atoms: _455  and  _458
REMARK  178  A    between atoms: _458  and  _459
REMARK  179  A    between atoms: _465  and  _467
REMARK  180  A    between atoms: _467  and  _468
REMARK  181  A    between atoms: _467  and  _470
REMARK  182  A    between atoms: _470  and  _471
REMARK  183  A    between atoms: _471  and  _472
REMARK  184  A    between atoms: _472  and  _473
REMARK  185  A    between atoms: _473  and  _474
REMARK  186  A    between atoms: _478  and  _480
REMARK  187  A    between atoms: _480  and  _481
REMARK  188  A    between atoms: _480  and  _483
REMARK  189  A    between atoms: _483  and  _484
REMARK  190  A    between atoms: _484  and  _485
REMARK  191  A    between atoms: _490  and  _492
REMARK  192  A    between atoms: _492  and  _493
REMARK  193  A    between atoms: _492  and  _495
REMARK  194  A    between atoms: _495  and  _496
REMARK  195  A    between atoms: _499  and  _501
REMARK  196  A    between atoms: _501  and  _502
REMARK  197  A    between atoms: _501  and  _504
REMARK  198  A    between atoms: _504  and  _505
REMARK  199  A    between atoms: _508  and  _510
REMARK  200  A    between atoms: _510  and  _511
REMARK  201  A    between atoms: _514  and  _516
REMARK  202  A    between atoms: _516  and  _517
REMARK  203  A    between atoms: _516  and  _519
REMARK  204  A    between atoms: _519  and  _520
REMARK  205  A    between atoms: _523  and  _525
REMARK  206  A    between atoms: _525  and  _526
REMARK  207  A    between atoms: _525  and  _528
REMARK  208  A    between atoms: _531  and  _533
REMARK  209  A    between atoms: _533  and  _534
REMARK  210  A    between atoms: _536  and  _538
REMARK  211  A    between atoms: _538  and  _539
REMARK  212  A    between atoms: _538  and  _541
REMARK  213  A    between atoms: _541  and  _542
REMARK  214  A    between atoms: _544  and  _546
REMARK  215  A    between atoms: _546  and  _547
REMARK  216  A    between atoms: _546  and  _549
REMARK  217  A    between atoms: _549  and  _550
REMARK  218  A    between atoms: _556  and  _558
REMARK  219  A    between atoms: _558  and  _559
REMARK  220  A    between atoms: _558  and  _561
REMARK  221  A    between atoms: _561  and  _562
REMARK  222  A    between atoms: _565  and  _567
REMARK  223  A    between atoms: _567  and  _568
REMARK  224  A    between atoms: _570  and  _572
REMARK  225  A    between atoms: _572  and  _573
REMARK  226  A    between atoms: _575  and  _577
REMARK  227  A    between atoms: _577  and  _578
REMARK  228  A    between atoms: _577  and  _580
REMARK  229  A    between atoms: _580  and  _581
REMARK  230  A    between atoms: _586  and  _587
REMARK  231  A    between atoms: _589  and  _591
REMARK  232  A    between atoms: _591  and  _592
REMARK  233  A    between atoms: _594  and  _596
REMARK  234  A    between atoms: _596  and  _597
REMARK  235  A    between atoms: _596  and  _599
REMARK  236  A    between atoms: _599  and  _600
REMARK  237  A    between atoms: _606  and  _608
REMARK  238  A    between atoms: _608  and  _609
REMARK  239  A    between atoms: _608  and  _611
REMARK  240  A    between atoms: _611  and  _612
REMARK  241  A    between atoms: _615  and  _617
REMARK  242  A    between atoms: _617  and  _618
REMARK  243  A    between atoms: _617  and  _620
REMARK  244  A    between atoms: _620  and  _621
REMARK  245  A    between atoms: _621  and  _622
REMARK  246  A    between atoms: _627  and  _629
REMARK  247  A    between atoms: _629  and  _630
REMARK  248  A    between atoms: _633  and  _635
REMARK  249  A    between atoms: _635  and  _636
REMARK  250  A    between atoms: _638  and  _640
REMARK  251  A    between atoms: _640  and  _641
REMARK  252  A    between atoms: _640  and  _643
REMARK  253  A    between atoms: _643  and  _644
REMARK  254  A    between atoms: _644  and  _645
REMARK  255  A    between atoms: _648  and  _650
REMARK  256  A    between atoms: _650  and  _651
REMARK  257  A    between atoms: _650  and  _653
REMARK  258  A    between atoms: _653  and  _654
REMARK  259  A    between atoms: _657  and  _659
REMARK  260  A    between atoms: _659  and  _660
REMARK  261  A    between atoms: _659  and  _662
REMARK  262  A    between atoms: _662  and  _663
REMARK  263  A    between atoms: _663  and  _664
REMARK  264  A    between atoms: _664  and  _665
REMARK  265  A    between atoms: _674  and  _676
REMARK  266  A    between atoms: _676  and  _677
REMARK  267  A    between atoms: _676  and  _679
REMARK  268  A    between atoms: _679  and  _680
REMARK  269  A    between atoms: _685  and  _686
REMARK  270  A    between atoms: _688  and  _690
REMARK  271  A    between atoms: _690  and  _691
REMARK  272  A    between atoms: _693  and  _695
REMARK  273  A    between atoms: _695  and  _696
REMARK  274  A    between atoms: _695  and  _698
REMARK  275  A    between atoms: _698  and  _699
REMARK  276  A    between atoms: _705  and  _707
REMARK  277  A    between atoms: _707  and  _708
REMARK  278  A    between atoms: _707  and  _710
REMARK  279  A    between atoms: _710  and  _711
REMARK  280  A    between atoms: _714  and  _716
REMARK  281  A    between atoms: _716  and  _717
REMARK  282  A    between atoms: _716  and  _719
REMARK  283  A    between atoms: _719  and  _720
REMARK  284  A    between atoms: _720  and  _721
REMARK  285  A    between atoms: _726  and  _728
REMARK  286  A    between atoms: _728  and  _729
REMARK  287  A    between atoms: _728  and  _731
REMARK  288  A    between atoms: _731  and  _732
REMARK  289  A    between atoms: _732  and  _733
REMARK  290  A    between atoms: _733  and  _734
REMARK  291  A    between atoms: _734  and  _735
REMARK                            x       y       z     vdW  Elec       q    Type
REMARK                         _______ _______ _______ _____ _____    ______ ____
ROOT
ATOM      1  CA  ARG A   2      29.466 -17.837 176.583  0.00  0.00    +0.137 C 
ENDROOT
BRANCH   1   4
ATOM      2  C   THR A   1      31.722 -18.033 177.453  0.00  0.00    +0.241 C 
ATOM      3  O   THR A   1      31.382 -18.914 178.234  0.00  0.00    -0.274 OA
ATOM      4  N   ARG A   2      30.862 -17.421 176.642  0.00  0.00    -0.298 N 
ATOM      5  H   ARG A   2      31.190 -16.637 176.043  0.00  0.00    +0.150 HD
BRANCH   2   6
ATOM      6  CA  THR A   1      33.179 -17.576 177.385  0.00  0.00    +0.172 C 
BRANCH   6   7
ATOM      7  N   THR A   1      33.587 -17.368 175.999  0.00  0.00    -0.236 NA
ATOM      8  H   THR A   1      33.895 -16.422 175.694  0.00  0.00    +0.142 HD
ENDBRANCH   6   7
BRANCH   6   9
ATOM      9  CB  THR A   1      33.336 -16.293 178.233  0.00  0.00    +0.135 C 
ATOM     10  CG2 THR A   1      32.900 -16.546 179.681  0.00  0.00    +0.034 C 
BRANCH   9  11
ATOM     11  OG1 THR A   1      34.702 -15.864 178.208  0.00  0.00    -0.383 OA
ATOM     12  HG1 THR A   1      34.971 -15.676 177.274  0.00  0.00    +0.210 HD
ENDBRANCH   9  11
ENDBRANCH   6   9
ENDBRANCH   2   6
ENDBRANCH   1   4
BRANCH   1  13
ATOM     13  C   ARG A   2      29.308 -19.291 176.130  0.00  0.00    +0.227 C 
ATOM     14  O   ARG A   2      28.500 -20.031 176.687  0.00  0.00    -0.286 OA
ENDBRANCH   1  13
BRANCH   1  15
ATOM     15  CB  ARG A   2      28.661 -16.936 175.648  0.00  0.00    +0.031 C 
BRANCH  15  16
ATOM     16  CG  ARG A   2      27.150 -17.195 175.769  0.00  0.00    +0.045 C 
BRANCH  16  17
ATOM     17  CD  ARG A   2      26.376 -16.597 174.613  0.00  0.00    +0.174 C 
BRANCH  17  18
ATOM     18  NE  ARG A   2      26.715 -15.194 174.428  0.00  0.00    -0.265 N 
ATOM     19  CZ  ARG A   2      26.164 -14.194 175.103  0.00  0.00    +0.342 C 
ATOM     20  NH2 ARG A   2      25.227 -14.442 176.017  0.00  0.00    -0.292 N 
ATOM     21 HH21 ARG A   2      24.796 -13.657 176.546  0.00  0.00    +0.255 HD
ATOM     22 HH22 ARG A   2      24.927 -15.420 176.202  0.00  0.00    +0.255 HD
ATOM     23  NH1 ARG A   2      26.557 -12.945 174.860  0.00  0.00    -0.292 N 
ATOM     24 HH11 ARG A   2      26.131 -12.154 175.384  0.00  0.00    +0.255 HD
ATOM     25 HH12 ARG A   2      27.290 -12.760 174.146  0.00  0.00    +0.255 HD
ATOM     26  HE  ARG A   2      27.438 -14.960 173.718  0.00  0.00    +0.259 HD
ENDBRANCH  17  18
ENDBRANCH  16  17
ENDBRANCH  15  16
ENDBRANCH   1  15
TORSDOF 10
REMARK  Name = ../refined-set-2016/4qij/4qij_pocket.pdb
REMARK  291 active torsions:
REMARK  status: ('A' for Active; 'I' for Inactive)
REMARK    1  A    between atoms: _1  and  _3
REMARK    2  A    between atoms: _3  and  _4
REMARK    3  A    between atoms: _3  and  _6
REMARK    4  A    between atoms: _6  and  _7
REMARK    5  A    between atoms: _7  and  _8
REMARK    6  A    between atoms: _8  and  _9
REMARK    7  A    between atoms: _19  and  _20
REMARK    8  A    between atoms: _25  and  _27
REMARK    9  A    between atoms: _27  and  _28
REMARK   10  A    between atoms: _27  and  _30
REMARK   11  A    between atoms: _30  and  _31
REMARK   12  A    between atoms: _31  and  _32
REMARK   13  A    between atoms: _35  and  _37
REMARK   14  A    between atoms: _37  and  _38
REMARK   15  A    between atoms: _37  and  _40
REMARK   16  A    between atoms: _43  and  _45
REMARK   17  A    between atoms: _45  and  _46
REMARK   18  A    between atoms: _45  and  _48
REMARK   19  A    between atoms: _48  and  _49
REMARK   20  A    between atoms: _49  and  _50
REMARK   21  A    between atoms: _50  and  _51
REMARK   22  A    between atoms: _60  and  _62
REMARK   23  A    between atoms: _62  and  _63
REMARK   24  A    between atoms: _62  and  _65
REMARK   25  A    between atoms: _65  and  _66
REMARK   26  A    between atoms: _71  and  _73
REMARK   27  A    between atoms: _73  and  _74
REMARK   28  A    between atoms: _77  and  _79
REMARK   29  A    between atoms: _79  and  _80
REMARK   30  A    between atoms: _79  and  _82
REMARK   31  A    between atoms: _82  and  _83
REMARK   32  A    between atoms: _89  and  _91
REMARK   33  A    between atoms: _91  and  _92
REMARK   34  A    between atoms: _91  and  _94
REMARK   35  A    between atoms: _97  and  _99
REMARK   36  A    between atoms: _99  and  _100
REMARK   37  A    between atoms: _99  and  _102
REMARK   38  A    between atoms: _102  and  _103
REMARK   39  A    between atoms: _105  and  _107
REMARK   40  A    between atoms: _107  and  _108
REMARK   41  A    between atoms: _107  and  _110
REMARK   42  A    between atoms: _110  and  _111
REMARK   43  A    between atoms: _111  and  _112
REMARK   44  A    between atoms: _112  and  _113
REMARK   45  A    between atoms: _113  and  _114
REMARK   46  A    between atoms: _118  and  _120
REMARK   47  A    between atoms: _120  and  _121
REMARK   48  A    between atoms: _120  and  _123
REMARK   49  A    between atoms: _123  and  _124
REMARK   50  A    between atoms: _127  and  _129
REMARK   51  A    between atoms: _129  and  _130
REMARK   52  A    between atoms: _132  and  _134
REMARK   53  A    between atoms: _134  and  _135
REMARK   54  A    between atoms: _134  and  _137
REMARK   55  A    between atoms: _137  and  _138
REMARK   56  A    between atoms: _148  and  _150
REMARK   57  A    between atoms: _150  and  _151
REMARK   58  A    between atoms: _154  and  _156
REMARK   59  A    between atoms: _156  and  _157
REMARK   60  A    between atoms: _156  and  _159
REMARK   61  A    between atoms: _159  and  _160
REMARK   62  A    between atoms: _166  and  _168
REMARK   63  A    between atoms: _168  and  _169
REMARK   64  A    between atoms: _168  and  _171
REMARK   65  A    between atoms: _173  and  _175
REMARK   66  A    between atoms: _175  and  _176
REMARK   67  A    between atoms: _175  and  _178
REMARK   68  A    between atoms: _178  and  _179
REMARK   69  A    between atoms: _181  and  _183
REMARK   70  A    between atoms: _183  and  _184
REMARK   71  A    between atoms: _186  and  _188
REMARK   72  A    between atoms: _188  and  _189
REMARK   73  A    between atoms: _191  and  _193
REMARK   74  A    between atoms: _193  and  _194
REMARK   75  A    between atoms: _193  and  _196
REMARK   76  A    between atoms: _196  and  _197
REMARK   77  A    between atoms: _200  and  _202
REMARK   78  A    between atoms: _202  and  _203
REMARK   79  A    between atoms: _202  and  _205
REMARK   80  A    between atoms: _205  and  _206
REMARK   81  A    between atoms: _206  and  _207
REMARK   82  A    between atoms: _212  and  _214
REMARK   83  A    between atoms: _214  and  _215
REMARK   84  A    between atoms: _214  and  _217
REMARK   85  A    between atoms: _217  and  _218
REMARK   86  A    between atoms: _218  and  _219
REMARK   87  A    between atoms: _219  and  _220
REMARK   88  A    between atoms: _229  and  _231
REMARK   89  A    between atoms: _231  and  _232
REMARK   90  A    between atoms: _231  and  _234
REMARK   91  A    between atoms: _234  and  _235
REMARK   92  A    between atoms: _238  and  _240
REMARK   93  A    between atoms: _240  and  _241
REMARK   94  A    between atoms: _240  and  _243
REMARK   95  A    between atoms: _243  and  _244
REMARK   96  A    between atoms: _244  and  _245
REMARK   97  A    between atoms: _245  and  _246
REMARK   98  A    between atoms: _255  and  _257
REMARK   99  A    between atoms: _257  and  _258
REMARK  100  A    between atoms: _260  and  _262
REMARK  101  A    between atoms: _262  and  _263
REMARK  102  A    between atoms: _262  and  _265
REMARK  103  A    between atoms: _265  and  _266
REMARK  104  A    between atoms: _271  and  _272
REMARK  105  A    between atoms: _274  and  _276
REMARK  106  A    between atoms: _276  and  _277
REMARK  107  A    between atoms: _276  and  _279
REMARK  108  A    between atoms: _279  and  _280
REMARK  109  A    between atoms: _283  and  _285
REMARK  110  A    between atoms: _285  and  _286
REMARK  111  A    between atoms: _285  and  _288
REMARK  112  A    between atoms: _288  and  _289
REMARK  113  A    between atoms: _289  and  _290
REMARK  114  A    between atoms: _290  and  _291
REMARK  115  A    between atoms: _300  and  _302
REMARK  116  A    between atoms: _302  and  _303
REMARK  117  A    between atoms: _302  and  _305
REMARK  118  A    between atoms: _305  and  _306
REMARK  119  A    between atoms: _309  and  _311
REMARK  120  A    between atoms: _311  and  _312
REMARK  121  A    between atoms: _311  and  _314
REMARK  122  A    between atoms: _314  and  _315
REMARK  123  A    between atoms: _320  and  _322
REMARK  124  A    between atoms: _322  and  _323
REMARK  125  A    between atoms: _322  and  _325
REMARK  126  A    between atoms: _325  and  _326
REMARK  127  A    between atoms: _329  and  _331
REMARK  128  A    between atoms: _331  and  _332
REMARK  129  A    between atoms: _331  and  _334
REMARK  130  A    between atoms: _334  and  _335
REMARK  131  A    between atoms: _338  and  _340
REMARK  132  A    between atoms: _340  and  _341
REMARK  133  A    between atoms: _340  and  _343
REMARK  134  A    between atoms: _343  and  _344
REMARK  135  A    between atoms: _344  and  _345
REMARK  136  A    between atoms: _348  and  _350
REMARK  137  A    between atoms: _350  and  _351
REMARK  138  A    between atoms: _350  and  _353
REMARK  139  A    between atoms: _353  and  _354
REMARK  140  A    between atoms: _354  and  _355
REMARK  141  A    between atoms: _360  and  _362
REMARK  142  A    between atoms: _362  and  _363
REMARK  143  A    between atoms: _365  and  _367
REMARK  144  A    between atoms: _367  and  _368
REMARK  145  A    between atoms: _367  and  _370
REMARK  146  A    between atoms: _370  and  _371
REMARK  147  A    between atoms: _381  and  _383
REMARK  148  A    between atoms: _383  and  _384
REMARK  149  A    between atoms: _387  and  _389
REMARK  150  A    between atoms: _389  and  _390
REMARK  151  A    between atoms: _393  and  _395
REMARK  152  A    between atoms: _395  and  _396
REMARK  153  A    between atoms: _398  and  _400
REMARK  154  A    between atoms: _400  and  _401
REMARK  155  A    between atoms: _403  and  _405
REMARK  156  A    between atoms: _405  and  _406
REMARK  157  A    between atoms: _408  and  _410
REMARK  158  A    between atoms: _410  and  _411
REMARK  159  A    between atoms: _410  and  _413
REMARK  160  A    between atoms: _413  and  _414
REMARK  161  A    between atoms: _419  and  _421
REMARK  162  A    between atoms: _421  and  _422
REMARK  163  A    between atoms: _421  and  _424
REMARK  164  A    between atoms: _424  and  _425
REMARK  165  A    between atoms: _427  and  _429
REMARK  166  A    between atoms: _429  and  _430
REMARK  167  A    between atoms: _429  and  _432
REMARK  168  A    between atoms: _432  and  _433
REMARK  169  A    between atoms: _436  and  _438
REMARK  170  A    between atoms: _438  and  _439
REMARK  171  A    between atoms: _438  and  _441
REMARK  172  A    between atoms: _441  and  _442
REMARK  173  A    between atoms: _442  and  _443
REMARK  174  A    between atoms: _443  and  _444
REMARK  175  A    between atoms: _453  and  _455
REMARK  176  A    between atoms: _455  and  _456
REMARK  177  A    between atoms: _455  and  _458
REMARK  178  A    between atoms: _458  and  _459
REMARK  179  A    between atoms: _465  and  _467
REMARK  180  A    between atoms: _467  and  _468
REMARK  181  A    between atoms: _467  and  _470
REMARK  182  A    between atoms: _470  and  _471
REMARK  183  A    between atoms: _471  and  _472
REMARK  184  A    between atoms: _472  and  _473
REMARK  185  A    between atoms: _473  and  _474
REMARK  186  A    between atoms: _478  and  _480
REMARK  187  A    between atoms: _480  and  _481
REMARK  188  A    between atoms: _480  and  _483
REMARK  189  A    between atoms: _483  and  _484
REMARK  190  A    between atoms: _484  and  _485
REMARK  191  A    between atoms: _490  and  _492
REMARK  192  A    between atoms: _492  and  _493
REMARK  193  A    between atoms: _492  and  _495
REMARK  194  A    between atoms: _495  and  _496
REMARK  195  A    between atoms: _499  and  _501
REMARK  196  A    between atoms: _501  and  _502
REMARK  197  A    between atoms: _501  and  _504
REMARK  198  A    between atoms: _504  and  _505
REMARK  199  A    between atoms: _508  and  _510
REMARK  200  A    between atoms: _510  and  _511
REMARK  201  A    between atoms: _514  and  _516
REMARK  202  A    between atoms: _516  and  _517
REMARK  203  A    between atoms: _516  and  _519
REMARK  204  A    between atoms: _519  and  _520
REMARK  205  A    between atoms: _523  and  _525
REMARK  206  A    between atoms: _525  and  _526
REMARK  207  A    between atoms: _525  and  _528
REMARK  208  A    between atoms: _531  and  _533
REMARK  209  A    between atoms: _533  and  _534
REMARK  210  A    between atoms: _536  and  _538
REMARK  211  A    between atoms: _538  and  _539
REMARK  212  A    between atoms: _538  and  _541
REMARK  213  A    between atoms: _541  and  _542
REMARK  214  A    between atoms: _544  and  _546
REMARK  215  A    between atoms: _546  and  _547
REMARK  216  A    between atoms: _546  and  _549
REMARK  217  A    between atoms: _549  and  _550
REMARK  218  A    between atoms: _556  and  _558
REMARK  219  A    between atoms: _558  and  _559
REMARK  220  A    between atoms: _558  and  _561
REMARK  221  A    between atoms: _561  and  _562
REMARK  222  A    between atoms: _565  and  _567
REMARK  223  A    between atoms: _567  and  _568
REMARK  224  A    between atoms: _570  and  _572
REMARK  225  A    between atoms: _572  and  _573
REMARK  226  A    between atoms: _575  and  _577
REMARK  227  A    between atoms: _577  and  _578
REMARK  228  A    between atoms: _577  and  _580
REMARK  229  A    between atoms: _580  and  _581
REMARK  230  A    between atoms: _586  and  _587
REMARK  231  A    between atoms: _589  and  _591
REMARK  232  A    between atoms: _591  and  _592
REMARK  233  A    between atoms: _594  and  _596
REMARK  234  A    between atoms: _596  and  _597
REMARK  235  A    between atoms: _596  and  _599
REMARK  236  A    between atoms: _599  and  _600
REMARK  237  A    between atoms: _606  and  _608
REMARK  238  A    between atoms: _608  and  _609
REMARK  239  A    between atoms: _608  and  _611
REMARK  240  A    between atoms: _611  and  _612
REMARK  241  A    between atoms: _615  and  _617
REMARK  242  A    between atoms: _617  and  _618
REMARK  243  A    between atoms: _617  and  _620
REMARK  244  A    between atoms: _620  and  _621
REMARK  245  A    between atoms: _621  and  _622
REMARK  246  A    between atoms: _627  and  _629
REMARK  247  A    between atoms: _629  and  _630
REMARK  248  A    between atoms: _633  and  _635
REMARK  249  A    between atoms: _635  and  _636
REMARK  250  A    between atoms: _638  and  _640
REMARK  251  A    between atoms: _640  and  _641
REMARK  252  A    between atoms: _640  and  _643
REMARK  253  A    between atoms: _643  and  _644
REMARK  254  A    between atoms: _644  and  _645
REMARK  255  A    between atoms: _648  and  _650
REMARK  256  A    between atoms: _650  and  _651
REMARK  257  A    between atoms: _650  and  _653
REMARK  258  A    between atoms: _653  and  _654
REMARK  259  A    between atoms: _657  and  _659
REMARK  260  A    between atoms: _659  and  _660
REMARK  261  A    between atoms: _659  and  _662
REMARK  262  A    between atoms: _662  and  _663
REMARK  263  A    between atoms: _663  and  _664
REMARK  264  A    between atoms: _664  and  _665
REMARK  265  A    between atoms: _674  and  _676
REMARK  266  A    between atoms: _676  and  _677
REMARK  267  A    between atoms: _676  and  _679
REMARK  268  A    between atoms: _679  and  _680
REMARK  269  A    between atoms: _685  and  _686
REMARK  270  A    between atoms: _688  and  _690
REMARK  271  A    between atoms: _690  and  _691
REMARK  272  A    between atoms: _693  and  _695
REMARK  273  A    between atoms: _695  and  _696
REMARK  274  A    between atoms: _695  and  _698
REMARK  275  A    between atoms: _698  and  _699
REMARK  276  A    between atoms: _705  and  _707
REMARK  277  A    between atoms: _707  and  _708
REMARK  278  A    between atoms: _707  and  _710
REMARK  279  A    between atoms: _710  and  _711
REMARK  280  A    between atoms: _714  and  _716
REMARK  281  A    between atoms: _716  and  _717
REMARK  282  A    between atoms: _716  and  _719
REMARK  283  A    between atoms: _719  and  _720
REMARK  284  A    between atoms: _720  and  _721
REMARK  285  A    between atoms: _726  and  _728
REMARK  286  A    between atoms: _728  and  _729
REMARK  287  A    between atoms: _728  and  _731
REMARK  288  A    between atoms: _731  and  _732
REMARK  289  A    between atoms: _732  and  _733
REMARK  290  A    between atoms: _733  and  _734
REMARK  291  A    between atoms: _734  and  _735
REMARK                            x       y       z     vdW  Elec       q    Type
REMARK                         _______ _______ _______ _____ _____    ______ ____
ROOT
ATOM      1  CG  TYR A   1      29.111 -19.174 181.107  0.00  0.00    -0.020 A 
ATOM      2  CD2 TYR A   1      28.469 -18.111 181.728  0.00  0.00    -0.001 A 
ATOM      3  CE2 TYR A   1      29.145 -17.279 182.605  0.00  0.00    +0.036 A 
ATOM      4  CZ  TYR A   1      30.474 -17.519 182.882  0.00  0.00    +0.134 A 
ATOM      5  CE1 TYR A   1      31.130 -18.583 182.303  0.00  0.00    +0.036 A 
ATOM      6  CD1 TYR A   1      30.440 -19.420 181.437  0.00  0.00    -0.001 A 
ENDROOT
BRANCH   4   7
ATOM      7  OH  TYR A   1      31.134 -16.707 183.752  0.00  0.00    -0.506 OA
ATOM      8  HH  TYR A   1      32.072 -17.013 183.840  0.00  0.00    +0.292 HD
ENDBRANCH   4   7
BRANCH   1   9
ATOM      9  CB  TYR A   1      28.356 -20.095 180.184  0.00  0.00    +0.051 C 
BRANCH   9  10
ATOM     10  CA  TYR A   1      28.999 -21.471 180.012  0.00  0.00    +0.137 C 
BRANCH  10  11
ATOM     11  N   TYR A   1      30.037 -21.454 178.985  0.00  0.00    -0.239 NA
ATOM     12  H   TYR A   1      30.201 -20.590 178.430  0.00  0.00    +0.142 HD
ENDBRANCH  10  11
BRANCH  10  13
ATOM     13  C   TYR A   1      27.910 -22.502 179.696  0.00  0.00    +0.224 C 
ATOM     14  O   TYR A   1      27.217 -22.986 180.591  0.00  0.00    -0.287 OA
ENDBRANCH  10  13
ENDBRANCH   9  10
ENDBRANCH   1   9
TORSDOF 5
REMARK  Name = ../refined-set-2016/4qij/4qij_pocket.pdb
REMARK  291 active torsions:
REMARK  status: ('A' for Active; 'I' for Inactive)
REMARK    1  A    between atoms: _1  and  _3
REMARK    2  A    between atoms: _3  and  _4
REMARK    3  A    between atoms: _3  and  _6
REMARK    4  A    between atoms: _6  and  _7
REMARK    5  A    between atoms: _7  and  _8
REMARK    6  A    between atoms: _8  and  _9
REMARK    7  A    between atoms: _19  and  _20
REMARK    8  A    between atoms: _25  and  _27
REMARK    9  A    between atoms: _27  and  _28
REMARK   10  A    between atoms: _27  and  _30
REMARK   11  A    between atoms: _30  and  _31
REMARK   12  A    between atoms: _31  and  _32
REMARK   13  A    between atoms: _35  and  _37
REMARK   14  A    between atoms: _37  and  _38
REMARK   15  A    between atoms: _37  and  _40
REMARK   16  A    between atoms: _43  and  _45
REMARK   17  A    between atoms: _45  and  _46
REMARK   18  A    between atoms: _45  and  _48
REMARK   19  A    between atoms: _48  and  _49
REMARK   20  A    between atoms: _49  and  _50
REMARK   21  A    between atoms: _50  and  _51
REMARK   22  A    between atoms: _60  and  _62
REMARK   23  A    between atoms: _62  and  _63
REMARK   24  A    between atoms: _62  and  _65
REMARK   25  A    between atoms: _65  and  _66
REMARK   26  A    between atoms: _71  and  _73
REMARK   27  A    between atoms: _73  and  _74
REMARK   28  A    between atoms: _77  and  _79
REMARK   29  A    between atoms: _79  and  _80
REMARK   30  A    between atoms: _79  and  _82
REMARK   31  A    between atoms: _82  and  _83
REMARK   32  A    between atoms: _89  and  _91
REMARK   33  A    between atoms: _91  and  _92
REMARK   34  A    between atoms: _91  and  _94
REMARK   35  A    between atoms: _97  and  _99
REMARK   36  A    between atoms: _99  and  _100
REMARK   37  A    between atoms: _99  and  _102
REMARK   38  A    between atoms: _102  and  _103
REMARK   39  A    between atoms: _105  and  _107
REMARK   40  A    between atoms: _107  and  _108
REMARK   41  A    between atoms: _107  and  _110
REMARK   42  A    between atoms: _110  and  _111
REMARK   43  A    between atoms: _111  and  _112
REMARK   44  A    between atoms: _112  and  _113
REMARK   45  A    between atoms: _113  and  _114
REMARK   46  A    between atoms: _118  and  _120
REMARK   47  A    between atoms: _120  and  _121
REMARK   48  A    between atoms: _120  and  _123
REMARK   49  A    between atoms: _123  and  _124
REMARK   50  A    between atoms: _127  and  _129
REMARK   51  A    between atoms: _129  and  _130
REMARK   52  A    between atoms: _132  and  _134
REMARK   53  A    between atoms: _134  and  _135
REMARK   54  A    between atoms: _134  and  _137
REMARK   55  A    between atoms: _137  and  _138
REMARK   56  A    between atoms: _148  and  _150
REMARK   57  A    between atoms: _150  and  _151
REMARK   58  A    between atoms: _154  and  _156
REMARK   59  A    between atoms: _156  and  _157
REMARK   60  A    between atoms: _156  and  _159
REMARK   61  A    between atoms: _159  and  _160
REMARK   62  A    between atoms: _166  and  _168
REMARK   63  A    between atoms: _168  and  _169
REMARK   64  A    between atoms: _168  and  _171
REMARK   65  A    between atoms: _173  and  _175
REMARK   66  A    between atoms: _175  and  _176
REMARK   67  A    between atoms: _175  and  _178
REMARK   68  A    between atoms: _178  and  _179
REMARK   69  A    between atoms: _181  and  _183
REMARK   70  A    between atoms: _183  and  _184
REMARK   71  A    between atoms: _186  and  _188
REMARK   72  A    between atoms: _188  and  _189
REMARK   73  A    between atoms: _191  and  _193
REMARK   74  A    between atoms: _193  and  _194
REMARK   75  A    between atoms: _193  and  _196
REMARK   76  A    between atoms: _196  and  _197
REMARK   77  A    between atoms: _200  and  _202
REMARK   78  A    between atoms: _202  and  _203
REMARK   79  A    between atoms: _202  and  _205
REMARK   80  A    between atoms: _205  and  _206
REMARK   81  A    between atoms: _206  and  _207
REMARK   82  A    between atoms: _212  and  _214
REMARK   83  A    between atoms: _214  and  _215
REMARK   84  A    between atoms: _214  and  _217
REMARK   85  A    between atoms: _217  and  _218
REMARK   86  A    between atoms: _218  and  _219
REMARK   87  A    between atoms: _219  and  _220
REMARK   88  A    between atoms: _229  and  _231
REMARK   89  A    between atoms: _231  and  _232
REMARK   90  A    between atoms: _231  and  _234
REMARK   91  A    between atoms: _234  and  _235
REMARK   92  A    between atoms: _238  and  _240
REMARK   93  A    between atoms: _240  and  _241
REMARK   94  A    between atoms: _240  and  _243
REMARK   95  A    between atoms: _243  and  _244
REMARK   96  A    between atoms: _244  and  _245
REMARK   97  A    between atoms: _245  and  _246
REMARK   98  A    between atoms: _255  and  _257
REMARK   99  A    between atoms: _257  and  _258
REMARK  100  A    between atoms: _260  and  _262
REMARK  101  A    between atoms: _262  and  _263
REMARK  102  A    between atoms: _262  and  _265
REMARK  103  A    between atoms: _265  and  _266
REMARK  104  A    between atoms: _271  and  _272
REMARK  105  A    between atoms: _274  and  _276
REMARK  106  A    between atoms: _276  and  _277
REMARK  107  A    between atoms: _276  and  _279
REMARK  108  A    between atoms: _279  and  _280
REMARK  109  A    between atoms: _283  and  _285
REMARK  110  A    between atoms: _285  and  _286
REMARK  111  A    between atoms: _285  and  _288
REMARK  112  A    between atoms: _288  and  _289
REMARK  113  A    between atoms: _289  and  _290
REMARK  114  A    between atoms: _290  and  _291
REMARK  115  A    between atoms: _300  and  _302
REMARK  116  A    between atoms: _302  and  _303
REMARK  117  A    between atoms: _302  and  _305
REMARK  118  A    between atoms: _305  and  _306
REMARK  119  A    between atoms: _309  and  _311
REMARK  120  A    between atoms: _311  and  _312
REMARK  121  A    between atoms: _311  and  _314
REMARK  122  A    between atoms: _314  and  _315
REMARK  123  A    between atoms: _320  and  _322
REMARK  124  A    between atoms: _322  and  _323
REMARK  125  A    between atoms: _322  and  _325
REMARK  126  A    between atoms: _325  and  _326
REMARK  127  A    between atoms: _329  and  _331
REMARK  128  A    between atoms: _331  and  _332
REMARK  129  A    between atoms: _331  and  _334
REMARK  130  A    between atoms: _334  and  _335
REMARK  131  A    between atoms: _338  and  _340
REMARK  132  A    between atoms: _340  and  _341
REMARK  133  A    between atoms: _340  and  _343
REMARK  134  A    between atoms: _343  and  _344
REMARK  135  A    between atoms: _344  and  _345
REMARK  136  A    between atoms: _348  and  _350
REMARK  137  A    between atoms: _350  and  _351
REMARK  138  A    between atoms: _350  and  _353
REMARK  139  A    between atoms: _353  and  _354
REMARK  140  A    between atoms: _354  and  _355
REMARK  141  A    between atoms: _360  and  _362
REMARK  142  A    between atoms: _362  and  _363
REMARK  143  A    between atoms: _365  and  _367
REMARK  144  A    between atoms: _367  and  _368
REMARK  145  A    between atoms: _367  and  _370
REMARK  146  A    between atoms: _370  and  _371
REMARK  147  A    between atoms: _381  and  _383
REMARK  148  A    between atoms: _383  and  _384
REMARK  149  A    between atoms: _387  and  _389
REMARK  150  A    between atoms: _389  and  _390
REMARK  151  A    between atoms: _393  and  _395
REMARK  152  A    between atoms: _395  and  _396
REMARK  153  A    between atoms: _398  and  _400
REMARK  154  A    between atoms: _400  and  _401
REMARK  155  A    between atoms: _403  and  _405
REMARK  156  A    between atoms: _405  and  _406
REMARK  157  A    between atoms: _408  and  _410
REMARK  158  A    between atoms: _410  and  _411
REMARK  159  A    between atoms: _410  and  _413
REMARK  160  A    between atoms: _413  and  _414
REMARK  161  A    between atoms: _419  and  _421
REMARK  162  A    between atoms: _421  and  _422
REMARK  163  A    between atoms: _421  and  _424
REMARK  164  A    between atoms: _424  and  _425
REMARK  165  A    between atoms: _427  and  _429
REMARK  166  A    between atoms: _429  and  _430
REMARK  167  A    between atoms: _429  and  _432
REMARK  168  A    between atoms: _432  and  _433
REMARK  169  A    between atoms: _436  and  _438
REMARK  170  A    between atoms: _438  and  _439
REMARK  171  A    between atoms: _438  and  _441
REMARK  172  A    between atoms: _441  and  _442
REMARK  173  A    between atoms: _442  and  _443
REMARK  174  A    between atoms: _443  and  _444
REMARK  175  A    between atoms: _453  and  _455
REMARK  176  A    between atoms: _455  and  _456
REMARK  177  A    between atoms: _455  and  _458
REMARK  178  A    between atoms: _458  and  _459
REMARK  179  A    between atoms: _465  and  _467
REMARK  180  A    between atoms: _467  and  _468
REMARK  181  A    between atoms: _467  and  _470
REMARK  182  A    between atoms: _470  and  _471
REMARK  183  A    between atoms: _471  and  _472
REMARK  184  A    between atoms: _472  and  _473
REMARK  185  A    between atoms: _473  and  _474
REMARK  186  A    between atoms: _478  and  _480
REMARK  187  A    between atoms: _480  and  _481
REMARK  188  A    between atoms: _480  and  _483
REMARK  189  A    between atoms: _483  and  _484
REMARK  190  A    between atoms: _484  and  _485
REMARK  191  A    between atoms: _490  and  _492
REMARK  192  A    between atoms: _492  and  _493
REMARK  193  A    between atoms: _492  and  _495
REMARK  194  A    between atoms: _495  and  _496
REMARK  195  A    between atoms: _499  and  _501
REMARK  196  A    between atoms: _501  and  _502
REMARK  197  A    between atoms: _501  and  _504
REMARK  198  A    between atoms: _504  and  _505
REMARK  199  A    between atoms: _508  and  _510
REMARK  200  A    between atoms: _510  and  _511
REMARK  201  A    between atoms: _514  and  _516
REMARK  202  A    between atoms: _516  and  _517
REMARK  203  A    between atoms: _516  and  _519
REMARK  204  A    between atoms: _519  and  _520
REMARK  205  A    between atoms: _523  and  _525
REMARK  206  A    between atoms: _525  and  _526
REMARK  207  A    between atoms: _525  and  _528
REMARK  208  A    between atoms: _531  and  _533
REMARK  209  A    between atoms: _533  and  _534
REMARK  210  A    between atoms: _536  and  _538
REMARK  211  A    between atoms: _538  and  _539
REMARK  212  A    between atoms: _538  and  _541
REMARK  213  A    between atoms: _541  and  _542
REMARK  214  A    between atoms: _544  and  _546
REMARK  215  A    between atoms: _546  and  _547
REMARK  216  A    between atoms: _546  and  _549
REMARK  217  A    between atoms: _549  and  _550
REMARK  218  A    between atoms: _556  and  _558
REMARK  219  A    between atoms: _558  and  _559
REMARK  220  A    between atoms: _558  and  _561
REMARK  221  A    between atoms: _561  and  _562
REMARK  222  A    between atoms: _565  and  _567
REMARK  223  A    between atoms: _567  and  _568
REMARK  224  A    between atoms: _570  and  _572
REMARK  225  A    between atoms: _572  and  _573
REMARK  226  A    between atoms: _575  and  _577
REMARK  227  A    between atoms: _577  and  _578
REMARK  228  A    between atoms: _577  and  _580
REMARK  229  A    between atoms: _580  and  _581
REMARK  230  A    between atoms: _586  and  _587
REMARK  231  A    between atoms: _589  and  _591
REMARK  232  A    between atoms: _591  and  _592
REMARK  233  A    between atoms: _594  and  _596
REMARK  234  A    between atoms: _596  and  _597
REMARK  235  A    between atoms: _596  and  _599
REMARK  236  A    between atoms: _599  and  _600
REMARK  237  A    between atoms: _606  and  _608
REMARK  238  A    between atoms: _608  and  _609
REMARK  239  A    between atoms: _608  and  _611
REMARK  240  A    between atoms: _611  and  _612
REMARK  241  A    between atoms: _615  and  _617
REMARK  242  A    between atoms: _617  and  _618
REMARK  243  A    between atoms: _617  and  _620
REMARK  244  A    between atoms: _620  and  _621
REMARK  245  A    between atoms: _621  and  _622
REMARK  246  A    between atoms: _627  and  _629
REMARK  247  A    between atoms: _629  and  _630
REMARK  248  A    between atoms: _633  and  _635
REMARK  249  A    between atoms: _635  and  _636
REMARK  250  A    between atoms: _638  and  _640
REMARK  251  A    between atoms: _640  and  _641
REMARK  252  A    between atoms: _640  and  _643
REMARK  253  A    between atoms: _643  and  _644
REMARK  254  A    between atoms: _644  and  _645
REMARK  255  A    between atoms: _648  and  _650
REMARK  256  A    between atoms: _650  and  _651
REMARK  257  A    between atoms: _650  and  _653
REMARK  258  A    between atoms: _653  and  _654
REMARK  259  A    between atoms: _657  and  _659
REMARK  260  A    between atoms: _659  and  _660
REMARK  261  A    between atoms: _659  and  _662
REMARK  262  A    between atoms: _662  and  _663
REMARK  263  A    between atoms: _663  and  _664
REMARK  264  A    between atoms: _664  and  _665
REMARK  265  A    between atoms: _674  and  _676
REMARK  266  A    between atoms: _676  and  _677
REMARK  267  A    between atoms: _676  and  _679
REMARK  268  A    between atoms: _679  and  _680
REMARK  269  A    between atoms: _685  and  _686
REMARK  270  A    between atoms: _688  and  _690
REMARK  271  A    between atoms: _690  and  _691
REMARK  272  A    between atoms: _693  and  _695
REMARK  273  A    between atoms: _695  and  _696
REMARK  274  A    between atoms: _695  and  _698
REMARK  275  A    between atoms: _698  and  _699
REMARK  276  A    between atoms: _705  and  _707
REMARK  277  A    between atoms: _707  and  _708
REMARK  278  A    between atoms: _707  and  _710
REMARK  279  A    between atoms: _710  and  _711
REMARK  280  A    between atoms: _714  and  _716
REMARK  281  A    between atoms: _716  and  _717
REMARK  282  A    between atoms: _716  and  _719
REMARK  283  A    between atoms: _719  and  _720
REMARK  284  A    between atoms: _720  and  _721
REMARK  285  A    between atoms: _726  and  _728
REMARK  286  A    between atoms: _728  and  _729
REMARK  287  A    between atoms: _728  and  _731
REMARK  288  A    between atoms: _731  and  _732
REMARK  289  A    between atoms: _732  and  _733
REMARK  290  A    between atoms: _733  and  _734
REMARK  291  A    between atoms: _734  and  _735
REMARK                            x       y       z     vdW  Elec       q    Type
REMARK                         _______ _______ _______ _____ _____    ______ ____
ROOT
ATOM      1  CA  GLY A   1      31.777 -25.180 188.463  0.00  0.00    +0.156 C 
ENDROOT
BRANCH   1   2
ATOM      2  N   GLY A   1      31.058 -26.234 187.769  0.00  0.00    -0.238 NA
ATOM      3  H   GLY A   1      31.092 -26.274 186.730  0.00  0.00    +0.142 HD
ENDBRANCH   1   2
BRANCH   1   4
ATOM      4  C   GLY A   1      30.838 -24.300 189.268  0.00  0.00    +0.226 C 
ATOM      5  O   GLY A   1      31.066 -24.033 190.457  0.00  0.00    -0.287 OA
ENDBRANCH   1   4
TORSDOF 2
REMARK  Name = ../refined-set-2016/4qij/4qij_pocket.pdb
REMARK  291 active torsions:
REMARK  status: ('A' for Active; 'I' for Inactive)
REMARK    1  A    between atoms: _1  and  _3
REMARK    2  A    between atoms: _3  and  _4
REMARK    3  A    between atoms: _3  and  _6
REMARK    4  A    between atoms: _6  and  _7
REMARK    5  A    between atoms: _7  and  _8
REMARK    6  A    between atoms: _8  and  _9
REMARK    7  A    between atoms: _19  and  _20
REMARK    8  A    between atoms: _25  and  _27
REMARK    9  A    between atoms: _27  and  _28
REMARK   10  A    between atoms: _27  and  _30
REMARK   11  A    between atoms: _30  and  _31
REMARK   12  A    between atoms: _31  and  _32
REMARK   13  A    between atoms: _35  and  _37
REMARK   14  A    between atoms: _37  and  _38
REMARK   15  A    between atoms: _37  and  _40
REMARK   16  A    between atoms: _43  and  _45
REMARK   17  A    between atoms: _45  and  _46
REMARK   18  A    between atoms: _45  and  _48
REMARK   19  A    between atoms: _48  and  _49
REMARK   20  A    between atoms: _49  and  _50
REMARK   21  A    between atoms: _50  and  _51
REMARK   22  A    between atoms: _60  and  _62
REMARK   23  A    between atoms: _62  and  _63
REMARK   24  A    between atoms: _62  and  _65
REMARK   25  A    between atoms: _65  and  _66
REMARK   26  A    between atoms: _71  and  _73
REMARK   27  A    between atoms: _73  and  _74
REMARK   28  A    between atoms: _77  and  _79
REMARK   29  A    between atoms: _79  and  _80
REMARK   30  A    between atoms: _79  and  _82
REMARK   31  A    between atoms: _82  and  _83
REMARK   32  A    between atoms: _89  and  _91
REMARK   33  A    between atoms: _91  and  _92
REMARK   34  A    between atoms: _91  and  _94
REMARK   35  A    between atoms: _97  and  _99
REMARK   36  A    between atoms: _99  and  _100
REMARK   37  A    between atoms: _99  and  _102
REMARK   38  A    between atoms: _102  and  _103
REMARK   39  A    between atoms: _105  and  _107
REMARK   40  A    between atoms: _107  and  _108
REMARK   41  A    between atoms: _107  and  _110
REMARK   42  A    between atoms: _110  and  _111
REMARK   43  A    between atoms: _111  and  _112
REMARK   44  A    between atoms: _112  and  _113
REMARK   45  A    between atoms: _113  and  _114
REMARK   46  A    between atoms: _118  and  _120
REMARK   47  A    between atoms: _120  and  _121
REMARK   48  A    between atoms: _120  and  _123
REMARK   49  A    between atoms: _123  and  _124
REMARK   50  A    between atoms: _127  and  _129
REMARK   51  A    between atoms: _129  and  _130
REMARK   52  A    between atoms: _132  and  _134
REMARK   53  A    between atoms: _134  and  _135
REMARK   54  A    between atoms: _134  and  _137
REMARK   55  A    between atoms: _137  and  _138
REMARK   56  A    between atoms: _148  and  _150
REMARK   57  A    between atoms: _150  and  _151
REMARK   58  A    between atoms: _154  and  _156
REMARK   59  A    between atoms: _156  and  _157
REMARK   60  A    between atoms: _156  and  _159
REMARK   61  A    between atoms: _159  and  _160
REMARK   62  A    between atoms: _166  and  _168
REMARK   63  A    between atoms: _168  and  _169
REMARK   64  A    between atoms: _168  and  _171
REMARK   65  A    between atoms: _173  and  _175
REMARK   66  A    between atoms: _175  and  _176
REMARK   67  A    between atoms: _175  and  _178
REMARK   68  A    between atoms: _178  and  _179
REMARK   69  A    between atoms: _181  and  _183
REMARK   70  A    between atoms: _183  and  _184
REMARK   71  A    between atoms: _186  and  _188
REMARK   72  A    between atoms: _188  and  _189
REMARK   73  A    between atoms: _191  and  _193
REMARK   74  A    between atoms: _193  and  _194
REMARK   75  A    between atoms: _193  and  _196
REMARK   76  A    between atoms: _196  and  _197
REMARK   77  A    between atoms: _200  and  _202
REMARK   78  A    between atoms: _202  and  _203
REMARK   79  A    between atoms: _202  and  _205
REMARK   80  A    between atoms: _205  and  _206
REMARK   81  A    between atoms: _206  and  _207
REMARK   82  A    between atoms: _212  and  _214
REMARK   83  A    between atoms: _214  and  _215
REMARK   84  A    between atoms: _214  and  _217
REMARK   85  A    between atoms: _217  and  _218
REMARK   86  A    between atoms: _218  and  _219
REMARK   87  A    between atoms: _219  and  _220
REMARK   88  A    between atoms: _229  and  _231
REMARK   89  A    between atoms: _231  and  _232
REMARK   90  A    between atoms: _231  and  _234
REMARK   91  A    between atoms: _234  and  _235
REMARK   92  A    between atoms: _238  and  _240
REMARK   93  A    between atoms: _240  and  _241
REMARK   94  A    between atoms: _240  and  _243
REMARK   95  A    between atoms: _243  and  _244
REMARK   96  A    between atoms: _244  and  _245
REMARK   97  A    between atoms: _245  and  _246
REMARK   98  A    between atoms: _255  and  _257
REMARK   99  A    between atoms: _257  and  _258
REMARK  100  A    between atoms: _260  and  _262
REMARK  101  A    between atoms: _262  and  _263
REMARK  102  A    between atoms: _262  and  _265
REMARK  103  A    between atoms: _265  and  _266
REMARK  104  A    between atoms: _271  and  _272
REMARK  105  A    between atoms: _274  and  _276
REMARK  106  A    between atoms: _276  and  _277
REMARK  107  A    between atoms: _276  and  _279
REMARK  108  A    between atoms: _279  and  _280
REMARK  109  A    between atoms: _283  and  _285
REMARK  110  A    between atoms: _285  and  _286
REMARK  111  A    between atoms: _285  and  _288
REMARK  112  A    between atoms: _288  and  _289
REMARK  113  A    between atoms: _289  and  _290
REMARK  114  A    between atoms: _290  and  _291
REMARK  115  A    between atoms: _300  and  _302
REMARK  116  A    between atoms: _302  and  _303
REMARK  117  A    between atoms: _302  and  _305
REMARK  118  A    between atoms: _305  and  _306
REMARK  119  A    between atoms: _309  and  _311
REMARK  120  A    between atoms: _311  and  _312
REMARK  121  A    between atoms: _311  and  _314
REMARK  122  A    between atoms: _314  and  _315
REMARK  123  A    between atoms: _320  and  _322
REMARK  124  A    between atoms: _322  and  _323
REMARK  125  A    between atoms: _322  and  _325
REMARK  126  A    between atoms: _325  and  _326
REMARK  127  A    between atoms: _329  and  _331
REMARK  128  A    between atoms: _331  and  _332
REMARK  129  A    between atoms: _331  and  _334
REMARK  130  A    between atoms: _334  and  _335
REMARK  131  A    between atoms: _338  and  _340
REMARK  132  A    between atoms: _340  and  _341
REMARK  133  A    between atoms: _340  and  _343
REMARK  134  A    between atoms: _343  and  _344
REMARK  135  A    between atoms: _344  and  _345
REMARK  136  A    between atoms: _348  and  _350
REMARK  137  A    between atoms: _350  and  _351
REMARK  138  A    between atoms: _350  and  _353
REMARK  139  A    between atoms: _353  and  _354
REMARK  140  A    between atoms: _354  and  _355
REMARK  141  A    between atoms: _360  and  _362
REMARK  142  A    between atoms: _362  and  _363
REMARK  143  A    between atoms: _365  and  _367
REMARK  144  A    between atoms: _367  and  _368
REMARK  145  A    between atoms: _367  and  _370
REMARK  146  A    between atoms: _370  and  _371
REMARK  147  A    between atoms: _381  and  _383
REMARK  148  A    between atoms: _383  and  _384
REMARK  149  A    between atoms: _387  and  _389
REMARK  150  A    between atoms: _389  and  _390
REMARK  151  A    between atoms: _393  and  _395
REMARK  152  A    between atoms: _395  and  _396
REMARK  153  A    between atoms: _398  and  _400
REMARK  154  A    between atoms: _400  and  _401
REMARK  155  A    between atoms: _403  and  _405
REMARK  156  A    between atoms: _405  and  _406
REMARK  157  A    between atoms: _408  and  _410
REMARK  158  A    between atoms: _410  and  _411
REMARK  159  A    between atoms: _410  and  _413
REMARK  160  A    between atoms: _413  and  _414
REMARK  161  A    between atoms: _419  and  _421
REMARK  162  A    between atoms: _421  and  _422
REMARK  163  A    between atoms: _421  and  _424
REMARK  164  A    between atoms: _424  and  _425
REMARK  165  A    between atoms: _427  and  _429
REMARK  166  A    between atoms: _429  and  _430
REMARK  167  A    between atoms: _429  and  _432
REMARK  168  A    between atoms: _432  and  _433
REMARK  169  A    between atoms: _436  and  _438
REMARK  170  A    between atoms: _438  and  _439
REMARK  171  A    between atoms: _438  and  _441
REMARK  172  A    between atoms: _441  and  _442
REMARK  173  A    between atoms: _442  and  _443
REMARK  174  A    between atoms: _443  and  _444
REMARK  175  A    between atoms: _453  and  _455
REMARK  176  A    between atoms: _455  and  _456
REMARK  177  A    between atoms: _455  and  _458
REMARK  178  A    between atoms: _458  and  _459
REMARK  179  A    between atoms: _465  and  _467
REMARK  180  A    between atoms: _467  and  _468
REMARK  181  A    between atoms: _467  and  _470
REMARK  182  A    between atoms: _470  and  _471
REMARK  183  A    between atoms: _471  and  _472
REMARK  184  A    between atoms: _472  and  _473
REMARK  185  A    between atoms: _473  and  _474
REMARK  186  A    between atoms: _478  and  _480
REMARK  187  A    between atoms: _480  and  _481
REMARK  188  A    between atoms: _480  and  _483
REMARK  189  A    between atoms: _483  and  _484
REMARK  190  A    between atoms: _484  and  _485
REMARK  191  A    between atoms: _490  and  _492
REMARK  192  A    between atoms: _492  and  _493
REMARK  193  A    between atoms: _492  and  _495
REMARK  194  A    between atoms: _495  and  _496
REMARK  195  A    between atoms: _499  and  _501
REMARK  196  A    between atoms: _501  and  _502
REMARK  197  A    between atoms: _501  and  _504
REMARK  198  A    between atoms: _504  and  _505
REMARK  199  A    between atoms: _508  and  _510
REMARK  200  A    between atoms: _510  and  _511
REMARK  201  A    between atoms: _514  and  _516
REMARK  202  A    between atoms: _516  and  _517
REMARK  203  A    between atoms: _516  and  _519
REMARK  204  A    between atoms: _519  and  _520
REMARK  205  A    between atoms: _523  and  _525
REMARK  206  A    between atoms: _525  and  _526
REMARK  207  A    between atoms: _525  and  _528
REMARK  208  A    between atoms: _531  and  _533
REMARK  209  A    between atoms: _533  and  _534
REMARK  210  A    between atoms: _536  and  _538
REMARK  211  A    between atoms: _538  and  _539
REMARK  212  A    between atoms: _538  and  _541
REMARK  213  A    between atoms: _541  and  _542
REMARK  214  A    between atoms: _544  and  _546
REMARK  215  A    between atoms: _546  and  _547
REMARK  216  A    between atoms: _546  and  _549
REMARK  217  A    between atoms: _549  and  _550
REMARK  218  A    between atoms: _556  and  _558
REMARK  219  A    between atoms: _558  and  _559
REMARK  220  A    between atoms: _558  and  _561
REMARK  221  A    between atoms: _561  and  _562
REMARK  222  A    between atoms: _565  and  _567
REMARK  223  A    between atoms: _567  and  _568
REMARK  224  A    between atoms: _570  and  _572
REMARK  225  A    between atoms: _572  and  _573
REMARK  226  A    between atoms: _575  and  _577
REMARK  227  A    between atoms: _577  and  _578
REMARK  228  A    between atoms: _577  and  _580
REMARK  229  A    between atoms: _580  and  _581
REMARK  230  A    between atoms: _586  and  _587
REMARK  231  A    between atoms: _589  and  _591
REMARK  232  A    between atoms: _591  and  _592
REMARK  233  A    between atoms: _594  and  _596
REMARK  234  A    between atoms: _596  and  _597
REMARK  235  A    between atoms: _596  and  _599
REMARK  236  A    between atoms: _599  and  _600
REMARK  237  A    between atoms: _606  and  _608
REMARK  238  A    between atoms: _608  and  _609
REMARK  239  A    between atoms: _608  and  _611
REMARK  240  A    between atoms: _611  and  _612
REMARK  241  A    between atoms: _615  and  _617
REMARK  242  A    between atoms: _617  and  _618
REMARK  243  A    between atoms: _617  and  _620
REMARK  244  A    between atoms: _620  and  _621
REMARK  245  A    between atoms: _621  and  _622
REMARK  246  A    between atoms: _627  and  _629
REMARK  247  A    between atoms: _629  and  _630
REMARK  248  A    between atoms: _633  and  _635
REMARK  249  A    between atoms: _635  and  _636
REMARK  250  A    between atoms: _638  and  _640
REMARK  251  A    between atoms: _640  and  _641
REMARK  252  A    between atoms: _640  and  _643
REMARK  253  A    between atoms: _643  and  _644
REMARK  254  A    between atoms: _644  and  _645
REMARK  255  A    between atoms: _648  and  _650
REMARK  256  A    between atoms: _650  and  _651
REMARK  257  A    between atoms: _650  and  _653
REMARK  258  A    between atoms: _653  and  _654
REMARK  259  A    between atoms: _657  and  _659
REMARK  260  A    between atoms: _659  and  _660
REMARK  261  A    between atoms: _659  and  _662
REMARK  262  A    between atoms: _662  and  _663
REMARK  263  A    between atoms: _663  and  _664
REMARK  264  A    between atoms: _664  and  _665
REMARK  265  A    between atoms: _674  and  _676
REMARK  266  A    between atoms: _676  and  _677
REMARK  267  A    between atoms: _676  and  _679
REMARK  268  A    between atoms: _679  and  _680
REMARK  269  A    between atoms: _685  and  _686
REMARK  270  A    between atoms: _688  and  _690
REMARK  271  A    between atoms: _690  and  _691
REMARK  272  A    between atoms: _693  and  _695
REMARK  273  A    between atoms: _695  and  _696
REMARK  274  A    between atoms: _695  and  _698
REMARK  275  A    between atoms: _698  and  _699
REMARK  276  A    between atoms: _705  and  _707
REMARK  277  A    between atoms: _707  and  _708
REMARK  278  A    between atoms: _707  and  _710
REMARK  279  A    between atoms: _710  and  _711
REMARK  280  A    between atoms: _714  and  _716
REMARK  281  A    between atoms: _716  and  _717
REMARK  282  A    between atoms: _716  and  _719
REMARK  283  A    between atoms: _719  and  _720
REMARK  284  A    between atoms: _720  and  _721
REMARK  285  A    between atoms: _726  and  _728
REMARK  286  A    between atoms: _728  and  _729
REMARK  287  A    between atoms: _728  and  _731
REMARK  288  A    between atoms: _731  and  _732
REMARK  289  A    between atoms: _732  and  _733
REMARK  290  A    between atoms: _733  and  _734
REMARK  291  A    between atoms: _734  and  _735
REMARK                            x       y       z     vdW  Elec       q    Type
REMARK                         _______ _______ _______ _____ _____    ______ ____
ROOT
ATOM      1  C   LEU A   2      26.519 -23.857 196.333  0.00  0.00    +0.241 C 
ATOM      2  O   LEU A   2      25.966 -23.514 197.378  0.00  0.00    -0.273 OA
ATOM      3  N   GLN A   3      26.976 -25.092 196.135  0.00  0.00    -0.297 N 
ATOM      4  H   GLN A   3      27.488 -25.316 195.258  0.00  0.00    +0.150 HD
ENDROOT
BRANCH   3   5
ATOM      5  CA  GLN A   3      26.766 -26.138 197.137  0.00  0.00    +0.149 C 
BRANCH   5   6
ATOM      6  C   GLN A   3      27.928 -26.227 198.117  0.00  0.00    +0.241 C 
ATOM      7  O   GLN A   3      27.970 -27.117 198.954  0.00  0.00    -0.273 OA
ATOM      8  N   LYS A   4      28.867 -25.295 197.996  0.00  0.00    -0.298 N 
ATOM      9  H   LYS A   4      28.784 -24.600 197.227  0.00  0.00    +0.150 HD
BRANCH   8  10
ATOM     10  CA  LYS A   4      30.011 -25.207 198.900  0.00  0.00    +0.137 C 
BRANCH  10  11
ATOM     11  C   LYS A   4      30.744 -26.546 199.036  0.00  0.00    +0.227 C 
ATOM     12  O   LYS A   4      30.973 -27.036 200.135  0.00  0.00    -0.286 OA
ENDBRANCH  10  11
BRANCH  10  13
ATOM     13  CB  LYS A   4      29.554 -24.685 200.270  0.00  0.00    +0.028 C 
BRANCH  13  14
ATOM     14  CG  LYS A   4      28.861 -23.317 200.186  0.00  0.00    -0.000 C 
BRANCH  14  15
ATOM     15  CD  LYS A   4      28.459 -22.774 201.549  0.00  0.00    -0.024 C 
BRANCH  15  16
ATOM     16  CE  LYS A   4      27.451 -21.633 201.420  0.00  0.00    -0.086 C 
BRANCH  16  17
ATOM     17  NZ  LYS A   4      28.039 -20.401 200.827  0.00  0.00    +0.380 N 
ATOM     18  HZ1 LYS A   4      28.820 -20.067 201.428  0.00  0.00    -0.089 HD
ATOM     19  HZ2 LYS A   4      27.308 -19.664 200.765  0.00  0.00    -0.089 HD
ATOM     20  HZ3 LYS A   4      28.399 -20.614 199.875  0.00  0.00    -0.089 HD
ENDBRANCH  16  17
ENDBRANCH  15  16
ENDBRANCH  14  15
ENDBRANCH  13  14
ENDBRANCH  10  13
ENDBRANCH   8  10
ENDBRANCH   5   6
BRANCH   5  21
ATOM     21  CB  GLN A   3      26.523 -27.486 196.453  0.00  0.00    +0.039 C 
BRANCH  21  22
ATOM     22  CG  GLN A   3      25.237 -27.496 195.658  0.00  0.00    +0.087 C 
BRANCH  22  23
ATOM     23  CD  GLN A   3      25.162 -28.635 194.665  0.00  0.00    +0.219 C 
ATOM     24  OE1 GLN A   3      25.901 -29.610 194.761  0.00  0.00    -0.275 OA
ATOM     25  NE2 GLN A   3      24.277 -28.502 193.686  0.00  0.00    -0.329 N 
ATOM     26 HE21 GLN A   3      23.671 -27.658 193.644  0.00  0.00    +0.145 HD
ATOM     27 HE22 GLN A   3      24.189 -29.242 192.960  0.00  0.00    +0.145 HD
ENDBRANCH  22  23
ENDBRANCH  21  22
ENDBRANCH   5  21
ENDBRANCH   3   5
BRANCH   1  28
ATOM     28  CA  LEU A   2      26.756 -22.835 195.220  0.00  0.00    +0.149 C 
BRANCH  28  31
ATOM     29  C   PHE A   1      29.177 -22.916 195.209  0.00  0.00    +0.239 C 
ATOM     30  O   PHE A   1      29.236 -22.610 196.405  0.00  0.00    -0.274 OA
ATOM     31  N   LEU A   2      28.028 -23.062 194.550  0.00  0.00    -0.297 N 
ATOM     32  H   LEU A   2      28.040 -23.341 193.548  0.00  0.00    +0.150 HD
BRANCH  29  33
ATOM     33  CA  PHE A   1      30.441 -23.117 194.400  0.00  0.00    +0.149 C 
BRANCH  33  34
ATOM     34  N   PHE A   1      30.345 -24.338 193.613  0.00  0.00    -0.238 NA
ATOM     35  H   PHE A   1      30.353 -24.292 192.574  0.00  0.00    +0.142 HD
ENDBRANCH  33  34
BRANCH  33  36
ATOM     36  CB  PHE A   1      30.655 -21.884 193.526  0.00  0.00    +0.053 C 
BRANCH  36  37
ATOM     37  CG  PHE A   1      30.568 -20.586 194.298  0.00  0.00    -0.020 A 
ATOM     38  CD2 PHE A   1      31.629 -20.160 195.081  0.00  0.00    -0.004 A 
ATOM     39  CE2 PHE A   1      31.556 -18.975 195.808  0.00  0.00    -0.000 A 
ATOM     40  CZ  PHE A   1      30.409 -18.212 195.762  0.00  0.00    -0.000 A 
ATOM     41  CE1 PHE A   1      29.338 -18.638 195.002  0.00  0.00    -0.000 A 
ATOM     42  CD1 PHE A   1      29.415 -19.820 194.275  0.00  0.00    -0.004 A 
ENDBRANCH  36  37
ENDBRANCH  33  36
ENDBRANCH  29  33
ENDBRANCH  28  31
BRANCH  28  43
ATOM     43  CB  LEU A   2      25.607 -22.869 194.219  0.00  0.00    +0.029 C 
BRANCH  43  44
ATOM     44  CG  LEU A   2      25.595 -21.693 193.234  0.00  0.00    +0.002 C 
ATOM     45  CD2 LEU A   2      25.414 -20.386 193.994  0.00  0.00    +0.000 C 
ATOM     46  CD1 LEU A   2      24.502 -21.867 192.190  0.00  0.00    +0.000 C 
ENDBRANCH  43  44
ENDBRANCH  28  43
ENDBRANCH   1  28
TORSDOF 20
REMARK  Name = ../refined-set-2016/4qij/4qij_pocket.pdb
REMARK  291 active torsions:
REMARK  status: ('A' for Active; 'I' for Inactive)
REMARK    1  A    between atoms: _1  and  _3
REMARK    2  A    between atoms: _3  and  _4
REMARK    3  A    between atoms: _3  and  _6
REMARK    4  A    between atoms: _6  and  _7
REMARK    5  A    between atoms: _7  and  _8
REMARK    6  A    between atoms: _8  and  _9
REMARK    7  A    between atoms: _19  and  _20
REMARK    8  A    between atoms: _25  and  _27
REMARK    9  A    between atoms: _27  and  _28
REMARK   10  A    between atoms: _27  and  _30
REMARK   11  A    between atoms: _30  and  _31
REMARK   12  A    between atoms: _31  and  _32
REMARK   13  A    between atoms: _35  and  _37
REMARK   14  A    between atoms: _37  and  _38
REMARK   15  A    between atoms: _37  and  _40
REMARK   16  A    between atoms: _43  and  _45
REMARK   17  A    between atoms: _45  and  _46
REMARK   18  A    between atoms: _45  and  _48
REMARK   19  A    between atoms: _48  and  _49
REMARK   20  A    between atoms: _49  and  _50
REMARK   21  A    between atoms: _50  and  _51
REMARK   22  A    between atoms: _60  and  _62
REMARK   23  A    between atoms: _62  and  _63
REMARK   24  A    between atoms: _62  and  _65
REMARK   25  A    between atoms: _65  and  _66
REMARK   26  A    between atoms: _71  and  _73
REMARK   27  A    between atoms: _73  and  _74
REMARK   28  A    between atoms: _77  and  _79
REMARK   29  A    between atoms: _79  and  _80
REMARK   30  A    between atoms: _79  and  _82
REMARK   31  A    between atoms: _82  and  _83
REMARK   32  A    between atoms: _89  and  _91
REMARK   33  A    between atoms: _91  and  _92
REMARK   34  A    between atoms: _91  and  _94
REMARK   35  A    between atoms: _97  and  _99
REMARK   36  A    between atoms: _99  and  _100
REMARK   37  A    between atoms: _99  and  _102
REMARK   38  A    between atoms: _102  and  _103
REMARK   39  A    between atoms: _105  and  _107
REMARK   40  A    between atoms: _107  and  _108
REMARK   41  A    between atoms: _107  and  _110
REMARK   42  A    between atoms: _110  and  _111
REMARK   43  A    between atoms: _111  and  _112
REMARK   44  A    between atoms: _112  and  _113
REMARK   45  A    between atoms: _113  and  _114
REMARK   46  A    between atoms: _118  and  _120
REMARK   47  A    between atoms: _120  and  _121
REMARK   48  A    between atoms: _120  and  _123
REMARK   49  A    between atoms: _123  and  _124
REMARK   50  A    between atoms: _127  and  _129
REMARK   51  A    between atoms: _129  and  _130
REMARK   52  A    between atoms: _132  and  _134
REMARK   53  A    between atoms: _134  and  _135
REMARK   54  A    between atoms: _134  and  _137
REMARK   55  A    between atoms: _137  and  _138
REMARK   56  A    between atoms: _148  and  _150
REMARK   57  A    between atoms: _150  and  _151
REMARK   58  A    between atoms: _154  and  _156
REMARK   59  A    between atoms: _156  and  _157
REMARK   60  A    between atoms: _156  and  _159
REMARK   61  A    between atoms: _159  and  _160
REMARK   62  A    between atoms: _166  and  _168
REMARK   63  A    between atoms: _168  and  _169
REMARK   64  A    between atoms: _168  and  _171
REMARK   65  A    between atoms: _173  and  _175
REMARK   66  A    between atoms: _175  and  _176
REMARK   67  A    between atoms: _175  and  _178
REMARK   68  A    between atoms: _178  and  _179
REMARK   69  A    between atoms: _181  and  _183
REMARK   70  A    between atoms: _183  and  _184
REMARK   71  A    between atoms: _186  and  _188
REMARK   72  A    between atoms: _188  and  _189
REMARK   73  A    between atoms: _191  and  _193
REMARK   74  A    between atoms: _193  and  _194
REMARK   75  A    between atoms: _193  and  _196
REMARK   76  A    between atoms: _196  and  _197
REMARK   77  A    between atoms: _200  and  _202
REMARK   78  A    between atoms: _202  and  _203
REMARK   79  A    between atoms: _202  and  _205
REMARK   80  A    between atoms: _205  and  _206
REMARK   81  A    between atoms: _206  and  _207
REMARK   82  A    between atoms: _212  and  _214
REMARK   83  A    between atoms: _214  and  _215
REMARK   84  A    between atoms: _214  and  _217
REMARK   85  A    between atoms: _217  and  _218
REMARK   86  A    between atoms: _218  and  _219
REMARK   87  A    between atoms: _219  and  _220
REMARK   88  A    between atoms: _229  and  _231
REMARK   89  A    between atoms: _231  and  _232
REMARK   90  A    between atoms: _231  and  _234
REMARK   91  A    between atoms: _234  and  _235
REMARK   92  A    between atoms: _238  and  _240
REMARK   93  A    between atoms: _240  and  _241
REMARK   94  A    between atoms: _240  and  _243
REMARK   95  A    between atoms: _243  and  _244
REMARK   96  A    between atoms: _244  and  _245
REMARK   97  A    between atoms: _245  and  _246
REMARK   98  A    between atoms: _255  and  _257
REMARK   99  A    between atoms: _257  and  _258
REMARK  100  A    between atoms: _260  and  _262
REMARK  101  A    between atoms: _262  and  _263
REMARK  102  A    between atoms: _262  and  _265
REMARK  103  A    between atoms: _265  and  _266
REMARK  104  A    between atoms: _271  and  _272
REMARK  105  A    between atoms: _274  and  _276
REMARK  106  A    between atoms: _276  and  _277
REMARK  107  A    between atoms: _276  and  _279
REMARK  108  A    between atoms: _279  and  _280
REMARK  109  A    between atoms: _283  and  _285
REMARK  110  A    between atoms: _285  and  _286
REMARK  111  A    between atoms: _285  and  _288
REMARK  112  A    between atoms: _288  and  _289
REMARK  113  A    between atoms: _289  and  _290
REMARK  114  A    between atoms: _290  and  _291
REMARK  115  A    between atoms: _300  and  _302
REMARK  116  A    between atoms: _302  and  _303
REMARK  117  A    between atoms: _302  and  _305
REMARK  118  A    between atoms: _305  and  _306
REMARK  119  A    between atoms: _309  and  _311
REMARK  120  A    between atoms: _311  and  _312
REMARK  121  A    between atoms: _311  and  _314
REMARK  122  A    between atoms: _314  and  _315
REMARK  123  A    between atoms: _320  and  _322
REMARK  124  A    between atoms: _322  and  _323
REMARK  125  A    between atoms: _322  and  _325
REMARK  126  A    between atoms: _325  and  _326
REMARK  127  A    between atoms: _329  and  _331
REMARK  128  A    between atoms: _331  and  _332
REMARK  129  A    between atoms: _331  and  _334
REMARK  130  A    between atoms: _334  and  _335
REMARK  131  A    between atoms: _338  and  _340
REMARK  132  A    between atoms: _340  and  _341
REMARK  133  A    between atoms: _340  and  _343
REMARK  134  A    between atoms: _343  and  _344
REMARK  135  A    between atoms: _344  and  _345
REMARK  136  A    between atoms: _348  and  _350
REMARK  137  A    between atoms: _350  and  _351
REMARK  138  A    between atoms: _350  and  _353
REMARK  139  A    between atoms: _353  and  _354
REMARK  140  A    between atoms: _354  and  _355
REMARK  141  A    between atoms: _360  and  _362
REMARK  142  A    between atoms: _362  and  _363
REMARK  143  A    between atoms: _365  and  _367
REMARK  144  A    between atoms: _367  and  _368
REMARK  145  A    between atoms: _367  and  _370
REMARK  146  A    between atoms: _370  and  _371
REMARK  147  A    between atoms: _381  and  _383
REMARK  148  A    between atoms: _383  and  _384
REMARK  149  A    between atoms: _387  and  _389
REMARK  150  A    between atoms: _389  and  _390
REMARK  151  A    between atoms: _393  and  _395
REMARK  152  A    between atoms: _395  and  _396
REMARK  153  A    between atoms: _398  and  _400
REMARK  154  A    between atoms: _400  and  _401
REMARK  155  A    between atoms: _403  and  _405
REMARK  156  A    between atoms: _405  and  _406
REMARK  157  A    between atoms: _408  and  _410
REMARK  158  A    between atoms: _410  and  _411
REMARK  159  A    between atoms: _410  and  _413
REMARK  160  A    between atoms: _413  and  _414
REMARK  161  A    between atoms: _419  and  _421
REMARK  162  A    between atoms: _421  and  _422
REMARK  163  A    between atoms: _421  and  _424
REMARK  164  A    between atoms: _424  and  _425
REMARK  165  A    between atoms: _427  and  _429
REMARK  166  A    between atoms: _429  and  _430
REMARK  167  A    between atoms: _429  and  _432
REMARK  168  A    between atoms: _432  and  _433
REMARK  169  A    between atoms: _436  and  _438
REMARK  170  A    between atoms: _438  and  _439
REMARK  171  A    between atoms: _438  and  _441
REMARK  172  A    between atoms: _441  and  _442
REMARK  173  A    between atoms: _442  and  _443
REMARK  174  A    between atoms: _443  and  _444
REMARK  175  A    between atoms: _453  and  _455
REMARK  176  A    between atoms: _455  and  _456
REMARK  177  A    between atoms: _455  and  _458
REMARK  178  A    between atoms: _458  and  _459
REMARK  179  A    between atoms: _465  and  _467
REMARK  180  A    between atoms: _467  and  _468
REMARK  181  A    between atoms: _467  and  _470
REMARK  182  A    between atoms: _470  and  _471
REMARK  183  A    between atoms: _471  and  _472
REMARK  184  A    between atoms: _472  and  _473
REMARK  185  A    between atoms: _473  and  _474
REMARK  186  A    between atoms: _478  and  _480
REMARK  187  A    between atoms: _480  and  _481
REMARK  188  A    between atoms: _480  and  _483
REMARK  189  A    between atoms: _483  and  _484
REMARK  190  A    between atoms: _484  and  _485
REMARK  191  A    between atoms: _490  and  _492
REMARK  192  A    between atoms: _492  and  _493
REMARK  193  A    between atoms: _492  and  _495
REMARK  194  A    between atoms: _495  and  _496
REMARK  195  A    between atoms: _499  and  _501
REMARK  196  A    between atoms: _501  and  _502
REMARK  197  A    between atoms: _501  and  _504
REMARK  198  A    between atoms: _504  and  _505
REMARK  199  A    between atoms: _508  and  _510
REMARK  200  A    between atoms: _510  and  _511
REMARK  201  A    between atoms: _514  and  _516
REMARK  202  A    between atoms: _516  and  _517
REMARK  203  A    between atoms: _516  and  _519
REMARK  204  A    between atoms: _519  and  _520
REMARK  205  A    between atoms: _523  and  _525
REMARK  206  A    between atoms: _525  and  _526
REMARK  207  A    between atoms: _525  and  _528
REMARK  208  A    between atoms: _531  and  _533
REMARK  209  A    between atoms: _533  and  _534
REMARK  210  A    between atoms: _536  and  _538
REMARK  211  A    between atoms: _538  and  _539
REMARK  212  A    between atoms: _538  and  _541
REMARK  213  A    between atoms: _541  and  _542
REMARK  214  A    between atoms: _544  and  _546
REMARK  215  A    between atoms: _546  and  _547
REMARK  216  A    between atoms: _546  and  _549
REMARK  217  A    between atoms: _549  and  _550
REMARK  218  A    between atoms: _556  and  _558
REMARK  219  A    between atoms: _558  and  _559
REMARK  220  A    between atoms: _558  and  _561
REMARK  221  A    between atoms: _561  and  _562
REMARK  222  A    between atoms: _565  and  _567
REMARK  223  A    between atoms: _567  and  _568
REMARK  224  A    between atoms: _570  and  _572
REMARK  225  A    between atoms: _572  and  _573
REMARK  226  A    between atoms: _575  and  _577
REMARK  227  A    between atoms: _577  and  _578
REMARK  228  A    between atoms: _577  and  _580
REMARK  229  A    between atoms: _580  and  _581
REMARK  230  A    between atoms: _586  and  _587
REMARK  231  A    between atoms: _589  and  _591
REMARK  232  A    between atoms: _591  and  _592
REMARK  233  A    between atoms: _594  and  _596
REMARK  234  A    between atoms: _596  and  _597
REMARK  235  A    between atoms: _596  and  _599
REMARK  236  A    between atoms: _599  and  _600
REMARK  237  A    between atoms: _606  and  _608
REMARK  238  A    between atoms: _608  and  _609
REMARK  239  A    between atoms: _608  and  _611
REMARK  240  A    between atoms: _611  and  _612
REMARK  241  A    between atoms: _615  and  _617
REMARK  242  A    between atoms: _617  and  _618
REMARK  243  A    between atoms: _617  and  _620
REMARK  244  A    between atoms: _620  and  _621
REMARK  245  A    between atoms: _621  and  _622
REMARK  246  A    between atoms: _627  and  _629
REMARK  247  A    between atoms: _629  and  _630
REMARK  248  A    between atoms: _633  and  _635
REMARK  249  A    between atoms: _635  and  _636
REMARK  250  A    between atoms: _638  and  _640
REMARK  251  A    between atoms: _640  and  _641
REMARK  252  A    between atoms: _640  and  _643
REMARK  253  A    between atoms: _643  and  _644
REMARK  254  A    between atoms: _644  and  _645
REMARK  255  A    between atoms: _648  and  _650
REMARK  256  A    between atoms: _650  and  _651
REMARK  257  A    between atoms: _650  and  _653
REMARK  258  A    between atoms: _653  and  _654
REMARK  259  A    between atoms: _657  and  _659
REMARK  260  A    between atoms: _659  and  _660
REMARK  261  A    between atoms: _659  and  _662
REMARK  262  A    between atoms: _662  and  _663
REMARK  263  A    between atoms: _663  and  _664
REMARK  264  A    between atoms: _664  and  _665
REMARK  265  A    between atoms: _674  and  _676
REMARK  266  A    between atoms: _676  and  _677
REMARK  267  A    between atoms: _676  and  _679
REMARK  268  A    between atoms: _679  and  _680
REMARK  269  A    between atoms: _685  and  _686
REMARK  270  A    between atoms: _688  and  _690
REMARK  271  A    between atoms: _690  and  _691
REMARK  272  A    between atoms: _693  and  _695
REMARK  273  A    between atoms: _695  and  _696
REMARK  274  A    between atoms: _695  and  _698
REMARK  275  A    between atoms: _698  and  _699
REMARK  276  A    between atoms: _705  and  _707
REMARK  277  A    between atoms: _707  and  _708
REMARK  278  A    between atoms: _707  and  _710
REMARK  279  A    between atoms: _710  and  _711
REMARK  280  A    between atoms: _714  and  _716
REMARK  281  A    between atoms: _716  and  _717
REMARK  282  A    between atoms: _716  and  _719
REMARK  283  A    between atoms: _719  and  _720
REMARK  284  A    between atoms: _720  and  _721
REMARK  285  A    between atoms: _726  and  _728
REMARK  286  A    between atoms: _728  and  _729
REMARK  287  A    between atoms: _728  and  _731
REMARK  288  A    between atoms: _731  and  _732
REMARK  289  A    between atoms: _732  and  _733
REMARK  290  A    between atoms: _733  and  _734
REMARK  291  A    between atoms: _734  and  _735
REMARK                            x       y       z     vdW  Elec       q    Type
REMARK                         _______ _______ _______ _____ _____    ______ ____
ROOT
ATOM      1  O   HOH     1      31.177  -8.251 201.824  0.00  0.00    +0.000 OA
ENDROOT
TORSDOF 0
REMARK  Name = ../refined-set-2016/4qij/4qij_pocket.pdb
REMARK  291 active torsions:
REMARK  status: ('A' for Active; 'I' for Inactive)
REMARK    1  A    between atoms: _1  and  _3
REMARK    2  A    between atoms: _3  and  _4
REMARK    3  A    between atoms: _3  and  _6
REMARK    4  A    between atoms: _6  and  _7
REMARK    5  A    between atoms: _7  and  _8
REMARK    6  A    between atoms: _8  and  _9
REMARK    7  A    between atoms: _19  and  _20
REMARK    8  A    between atoms: _25  and  _27
REMARK    9  A    between atoms: _27  and  _28
REMARK   10  A    between atoms: _27  and  _30
REMARK   11  A    between atoms: _30  and  _31
REMARK   12  A    between atoms: _31  and  _32
REMARK   13  A    between atoms: _35  and  _37
REMARK   14  A    between atoms: _37  and  _38
REMARK   15  A    between atoms: _37  and  _40
REMARK   16  A    between atoms: _43  and  _45
REMARK   17  A    between atoms: _45  and  _46
REMARK   18  A    between atoms: _45  and  _48
REMARK   19  A    between atoms: _48  and  _49
REMARK   20  A    between atoms: _49  and  _50
REMARK   21  A    between atoms: _50  and  _51
REMARK   22  A    between atoms: _60  and  _62
REMARK   23  A    between atoms: _62  and  _63
REMARK   24  A    between atoms: _62  and  _65
REMARK   25  A    between atoms: _65  and  _66
REMARK   26  A    between atoms: _71  and  _73
REMARK   27  A    between atoms: _73  and  _74
REMARK   28  A    between atoms: _77  and  _79
REMARK   29  A    between atoms: _79  and  _80
REMARK   30  A    between atoms: _79  and  _82
REMARK   31  A    between atoms: _82  and  _83
REMARK   32  A    between atoms: _89  and  _91
REMARK   33  A    between atoms: _91  and  _92
REMARK   34  A    between atoms: _91  and  _94
REMARK   35  A    between atoms: _97  and  _99
REMARK   36  A    between atoms: _99  and  _100
REMARK   37  A    between atoms: _99  and  _102
REMARK   38  A    between atoms: _102  and  _103
REMARK   39  A    between atoms: _105  and  _107
REMARK   40  A    between atoms: _107  and  _108
REMARK   41  A    between atoms: _107  and  _110
REMARK   42  A    between atoms: _110  and  _111
REMARK   43  A    between atoms: _111  and  _112
REMARK   44  A    between atoms: _112  and  _113
REMARK   45  A    between atoms: _113  and  _114
REMARK   46  A    between atoms: _118  and  _120
REMARK   47  A    between atoms: _120  and  _121
REMARK   48  A    between atoms: _120  and  _123
REMARK   49  A    between atoms: _123  and  _124
REMARK   50  A    between atoms: _127  and  _129
REMARK   51  A    between atoms: _129  and  _130
REMARK   52  A    between atoms: _132  and  _134
REMARK   53  A    between atoms: _134  and  _135
REMARK   54  A    between atoms: _134  and  _137
REMARK   55  A    between atoms: _137  and  _138
REMARK   56  A    between atoms: _148  and  _150
REMARK   57  A    between atoms: _150  and  _151
REMARK   58  A    between atoms: _154  and  _156
REMARK   59  A    between atoms: _156  and  _157
REMARK   60  A    between atoms: _156  and  _159
REMARK   61  A    between atoms: _159  and  _160
REMARK   62  A    between atoms: _166  and  _168
REMARK   63  A    between atoms: _168  and  _169
REMARK   64  A    between atoms: _168  and  _171
REMARK   65  A    between atoms: _173  and  _175
REMARK   66  A    between atoms: _175  and  _176
REMARK   67  A    between atoms: _175  and  _178
REMARK   68  A    between atoms: _178  and  _179
REMARK   69  A    between atoms: _181  and  _183
REMARK   70  A    between atoms: _183  and  _184
REMARK   71  A    between atoms: _186  and  _188
REMARK   72  A    between atoms: _188  and  _189
REMARK   73  A    between atoms: _191  and  _193
REMARK   74  A    between atoms: _193  and  _194
REMARK   75  A    between atoms: _193  and  _196
REMARK   76  A    between atoms: _196  and  _197
REMARK   77  A    between atoms: _200  and  _202
REMARK   78  A    between atoms: _202  and  _203
REMARK   79  A    between atoms: _202  and  _205
REMARK   80  A    between atoms: _205  and  _206
REMARK   81  A    between atoms: _206  and  _207
REMARK   82  A    between atoms: _212  and  _214
REMARK   83  A    between atoms: _214  and  _215
REMARK   84  A    between atoms: _214  and  _217
REMARK   85  A    between atoms: _217  and  _218
REMARK   86  A    between atoms: _218  and  _219
REMARK   87  A    between atoms: _219  and  _220
REMARK   88  A    between atoms: _229  and  _231
REMARK   89  A    between atoms: _231  and  _232
REMARK   90  A    between atoms: _231  and  _234
REMARK   91  A    between atoms: _234  and  _235
REMARK   92  A    between atoms: _238  and  _240
REMARK   93  A    between atoms: _240  and  _241
REMARK   94  A    between atoms: _240  and  _243
REMARK   95  A    between atoms: _243  and  _244
REMARK   96  A    between atoms: _244  and  _245
REMARK   97  A    between atoms: _245  and  _246
REMARK   98  A    between atoms: _255  and  _257
REMARK   99  A    between atoms: _257  and  _258
REMARK  100  A    between atoms: _260  and  _262
REMARK  101  A    between atoms: _262  and  _263
REMARK  102  A    between atoms: _262  and  _265
REMARK  103  A    between atoms: _265  and  _266
REMARK  104  A    between atoms: _271  and  _272
REMARK  105  A    between atoms: _274  and  _276
REMARK  106  A    between atoms: _276  and  _277
REMARK  107  A    between atoms: _276  and  _279
REMARK  108  A    between atoms: _279  and  _280
REMARK  109  A    between atoms: _283  and  _285
REMARK  110  A    between atoms: _285  and  _286
REMARK  111  A    between atoms: _285  and  _288
REMARK  112  A    between atoms: _288  and  _289
REMARK  113  A    between atoms: _289  and  _290
REMARK  114  A    between atoms: _290  and  _291
REMARK  115  A    between atoms: _300  and  _302
REMARK  116  A    between atoms: _302  and  _303
REMARK  117  A    between atoms: _302  and  _305
REMARK  118  A    between atoms: _305  and  _306
REMARK  119  A    between atoms: _309  and  _311
REMARK  120  A    between atoms: _311  and  _312
REMARK  121  A    between atoms: _311  and  _314
REMARK  122  A    between atoms: _314  and  _315
REMARK  123  A    between atoms: _320  and  _322
REMARK  124  A    between atoms: _322  and  _323
REMARK  125  A    between atoms: _322  and  _325
REMARK  126  A    between atoms: _325  and  _326
REMARK  127  A    between atoms: _329  and  _331
REMARK  128  A    between atoms: _331  and  _332
REMARK  129  A    between atoms: _331  and  _334
REMARK  130  A    between atoms: _334  and  _335
REMARK  131  A    between atoms: _338  and  _340
REMARK  132  A    between atoms: _340  and  _341
REMARK  133  A    between atoms: _340  and  _343
REMARK  134  A    between atoms: _343  and  _344
REMARK  135  A    between atoms: _344  and  _345
REMARK  136  A    between atoms: _348  and  _350
REMARK  137  A    between atoms: _350  and  _351
REMARK  138  A    between atoms: _350  and  _353
REMARK  139  A    between atoms: _353  and  _354
REMARK  140  A    between atoms: _354  and  _355
REMARK  141  A    between atoms: _360  and  _362
REMARK  142  A    between atoms: _362  and  _363
REMARK  143  A    between atoms: _365  and  _367
REMARK  144  A    between atoms: _367  and  _368
REMARK  145  A    between atoms: _367  and  _370
REMARK  146  A    between atoms: _370  and  _371
REMARK  147  A    between atoms: _381  and  _383
REMARK  148  A    between atoms: _383  and  _384
REMARK  149  A    between atoms: _387  and  _389
REMARK  150  A    between atoms: _389  and  _390
REMARK  151  A    between atoms: _393  and  _395
REMARK  152  A    between atoms: _395  and  _396
REMARK  153  A    between atoms: _398  and  _400
REMARK  154  A    between atoms: _400  and  _401
REMARK  155  A    between atoms: _403  and  _405
REMARK  156  A    between atoms: _405  and  _406
REMARK  157  A    between atoms: _408  and  _410
REMARK  158  A    between atoms: _410  and  _411
REMARK  159  A    between atoms: _410  and  _413
REMARK  160  A    between atoms: _413  and  _414
REMARK  161  A    between atoms: _419  and  _421
REMARK  162  A    between atoms: _421  and  _422
REMARK  163  A    between atoms: _421  and  _424
REMARK  164  A    between atoms: _424  and  _425
REMARK  165  A    between atoms: _427  and  _429
REMARK  166  A    between atoms: _429  and  _430
REMARK  167  A    between atoms: _429  and  _432
REMARK  168  A    between atoms: _432  and  _433
REMARK  169  A    between atoms: _436  and  _438
REMARK  170  A    between atoms: _438  and  _439
REMARK  171  A    between atoms: _438  and  _441
REMARK  172  A    between atoms: _441  and  _442
REMARK  173  A    between atoms: _442  and  _443
REMARK  174  A    between atoms: _443  and  _444
REMARK  175  A    between atoms: _453  and  _455
REMARK  176  A    between atoms: _455  and  _456
REMARK  177  A    between atoms: _455  and  _458
REMARK  178  A    between atoms: _458  and  _459
REMARK  179  A    between atoms: _465  and  _467
REMARK  180  A    between atoms: _467  and  _468
REMARK  181  A    between atoms: _467  and  _470
REMARK  182  A    between atoms: _470  and  _471
REMARK  183  A    between atoms: _471  and  _472
REMARK  184  A    between atoms: _472  and  _473
REMARK  185  A    between atoms: _473  and  _474
REMARK  186  A    between atoms: _478  and  _480
REMARK  187  A    between atoms: _480  and  _481
REMARK  188  A    between atoms: _480  and  _483
REMARK  189  A    between atoms: _483  and  _484
REMARK  190  A    between atoms: _484  and  _485
REMARK  191  A    between atoms: _490  and  _492
REMARK  192  A    between atoms: _492  and  _493
REMARK  193  A    between atoms: _492  and  _495
REMARK  194  A    between atoms: _495  and  _496
REMARK  195  A    between atoms: _499  and  _501
REMARK  196  A    between atoms: _501  and  _502
REMARK  197  A    between atoms: _501  and  _504
REMARK  198  A    between atoms: _504  and  _505
REMARK  199  A    between atoms: _508  and  _510
REMARK  200  A    between atoms: _510  and  _511
REMARK  201  A    between atoms: _514  and  _516
REMARK  202  A    between atoms: _516  and  _517
REMARK  203  A    between atoms: _516  and  _519
REMARK  204  A    between atoms: _519  and  _520
REMARK  205  A    between atoms: _523  and  _525
REMARK  206  A    between atoms: _525  and  _526
REMARK  207  A    between atoms: _525  and  _528
REMARK  208  A    between atoms: _531  and  _533
REMARK  209  A    between atoms: _533  and  _534
REMARK  210  A    between atoms: _536  and  _538
REMARK  211  A    between atoms: _538  and  _539
REMARK  212  A    between atoms: _538  and  _541
REMARK  213  A    between atoms: _541  and  _542
REMARK  214  A    between atoms: _544  and  _546
REMARK  215  A    between atoms: _546  and  _547
REMARK  216  A    between atoms: _546  and  _549
REMARK  217  A    between atoms: _549  and  _550
REMARK  218  A    between atoms: _556  and  _558
REMARK  219  A    between atoms: _558  and  _559
REMARK  220  A    between atoms: _558  and  _561
REMARK  221  A    between atoms: _561  and  _562
REMARK  222  A    between atoms: _565  and  _567
REMARK  223  A    between atoms: _567  and  _568
REMARK  224  A    between atoms: _570  and  _572
REMARK  225  A    between atoms: _572  and  _573
REMARK  226  A    between atoms: _575  and  _577
REMARK  227  A    between atoms: _577  and  _578
REMARK  228  A    between atoms: _577  and  _580
REMARK  229  A    between atoms: _580  and  _581
REMARK  230  A    between atoms: _586  and  _587
REMARK  231  A    between atoms: _589  and  _591
REMARK  232  A    between atoms: _591  and  _592
REMARK  233  A    between atoms: _594  and  _596
REMARK  234  A    between atoms: _596  and  _597
REMARK  235  A    between atoms: _596  and  _599
REMARK  236  A    between atoms: _599  and  _600
REMARK  237  A    between atoms: _606  and  _608
REMARK  238  A    between atoms: _608  and  _609
REMARK  239  A    between atoms: _608  and  _611
REMARK  240  A    between atoms: _611  and  _612
REMARK  241  A    between atoms: _615  and  _617
REMARK  242  A    between atoms: _617  and  _618
REMARK  243  A    between atoms: _617  and  _620
REMARK  244  A    between atoms: _620  and  _621
REMARK  245  A    between atoms: _621  and  _622
REMARK  246  A    between atoms: _627  and  _629
REMARK  247  A    between atoms: _629  and  _630
REMARK  248  A    between atoms: _633  and  _635
REMARK  249  A    between atoms: _635  and  _636
REMARK  250  A    between atoms: _638  and  _640
REMARK  251  A    between atoms: _640  and  _641
REMARK  252  A    between atoms: _640  and  _643
REMARK  253  A    between atoms: _643  and  _644
REMARK  254  A    between atoms: _644  and  _645
REMARK  255  A    between atoms: _648  and  _650
REMARK  256  A    between atoms: _650  and  _651
REMARK  257  A    between atoms: _650  and  _653
REMARK  258  A    between atoms: _653  and  _654
REMARK  259  A    between atoms: _657  and  _659
REMARK  260  A    between atoms: _659  and  _660
REMARK  261  A    between atoms: _659  and  _662
REMARK  262  A    between atoms: _662  and  _663
REMARK  263  A    between atoms: _663  and  _664
REMARK  264  A    between atoms: _664  and  _665
REMARK  265  A    between atoms: _674  and  _676
REMARK  266  A    between atoms: _676  and  _677
REMARK  267  A    between atoms: _676  and  _679
REMARK  268  A    between atoms: _679  and  _680
REMARK  269  A    between atoms: _685  and  _686
REMARK  270  A    between atoms: _688  and  _690
REMARK  271  A    between atoms: _690  and  _691
REMARK  272  A    between atoms: _693  and  _695
REMARK  273  A    between atoms: _695  and  _696
REMARK  274  A    between atoms: _695  and  _698
REMARK  275  A    between atoms: _698  and  _699
REMARK  276  A    between atoms: _705  and  _707
REMARK  277  A    between atoms: _707  and  _708
REMARK  278  A    between atoms: _707  and  _710
REMARK  279  A    between atoms: _710  and  _711
REMARK  280  A    between atoms: _714  and  _716
REMARK  281  A    between atoms: _716  and  _717
REMARK  282  A    between atoms: _716  and  _719
REMARK  283  A    between atoms: _719  and  _720
REMARK  284  A    between atoms: _720  and  _721
REMARK  285  A    between atoms: _726  and  _728
REMARK  286  A    between atoms: _728  and  _729
REMARK  287  A    between atoms: _728  and  _731
REMARK  288  A    between atoms: _731  and  _732
REMARK  289  A    between atoms: _732  and  _733
REMARK  290  A    between atoms: _733  and  _734
REMARK  291  A    between atoms: _734  and  _735
REMARK                            x       y       z     vdW  Elec       q    Type
REMARK                         _______ _______ _______ _____ _____    ______ ____
ROOT
ATOM      1  O   HOH     1      41.867 -20.860 193.580  0.00  0.00    +0.000 OA
ENDROOT
TORSDOF 0
REMARK  Name = ../refined-set-2016/4qij/4qij_pocket.pdb
REMARK  291 active torsions:
REMARK  status: ('A' for Active; 'I' for Inactive)
REMARK    1  A    between atoms: _1  and  _3
REMARK    2  A    between atoms: _3  and  _4
REMARK    3  A    between atoms: _3  and  _6
REMARK    4  A    between atoms: _6  and  _7
REMARK    5  A    between atoms: _7  and  _8
REMARK    6  A    between atoms: _8  and  _9
REMARK    7  A    between atoms: _19  and  _20
REMARK    8  A    between atoms: _25  and  _27
REMARK    9  A    between atoms: _27  and  _28
REMARK   10  A    between atoms: _27  and  _30
REMARK   11  A    between atoms: _30  and  _31
REMARK   12  A    between atoms: _31  and  _32
REMARK   13  A    between atoms: _35  and  _37
REMARK   14  A    between atoms: _37  and  _38
REMARK   15  A    between atoms: _37  and  _40
REMARK   16  A    between atoms: _43  and  _45
REMARK   17  A    between atoms: _45  and  _46
REMARK   18  A    between atoms: _45  and  _48
REMARK   19  A    between atoms: _48  and  _49
REMARK   20  A    between atoms: _49  and  _50
REMARK   21  A    between atoms: _50  and  _51
REMARK   22  A    between atoms: _60  and  _62
REMARK   23  A    between atoms: _62  and  _63
REMARK   24  A    between atoms: _62  and  _65
REMARK   25  A    between atoms: _65  and  _66
REMARK   26  A    between atoms: _71  and  _73
REMARK   27  A    between atoms: _73  and  _74
REMARK   28  A    between atoms: _77  and  _79
REMARK   29  A    between atoms: _79  and  _80
REMARK   30  A    between atoms: _79  and  _82
REMARK   31  A    between atoms: _82  and  _83
REMARK   32  A    between atoms: _89  and  _91
REMARK   33  A    between atoms: _91  and  _92
REMARK   34  A    between atoms: _91  and  _94
REMARK   35  A    between atoms: _97  and  _99
REMARK   36  A    between atoms: _99  and  _100
REMARK   37  A    between atoms: _99  and  _102
REMARK   38  A    between atoms: _102  and  _103
REMARK   39  A    between atoms: _105  and  _107
REMARK   40  A    between atoms: _107  and  _108
REMARK   41  A    between atoms: _107  and  _110
REMARK   42  A    between atoms: _110  and  _111
REMARK   43  A    between atoms: _111  and  _112
REMARK   44  A    between atoms: _112  and  _113
REMARK   45  A    between atoms: _113  and  _114
REMARK   46  A    between atoms: _118  and  _120
REMARK   47  A    between atoms: _120  and  _121
REMARK   48  A    between atoms: _120  and  _123
REMARK   49  A    between atoms: _123  and  _124
REMARK   50  A    between atoms: _127  and  _129
REMARK   51  A    between atoms: _129  and  _130
REMARK   52  A    between atoms: _132  and  _134
REMARK   53  A    between atoms: _134  and  _135
REMARK   54  A    between atoms: _134  and  _137
REMARK   55  A    between atoms: _137  and  _138
REMARK   56  A    between atoms: _148  and  _150
REMARK   57  A    between atoms: _150  and  _151
REMARK   58  A    between atoms: _154  and  _156
REMARK   59  A    between atoms: _156  and  _157
REMARK   60  A    between atoms: _156  and  _159
REMARK   61  A    between atoms: _159  and  _160
REMARK   62  A    between atoms: _166  and  _168
REMARK   63  A    between atoms: _168  and  _169
REMARK   64  A    between atoms: _168  and  _171
REMARK   65  A    between atoms: _173  and  _175
REMARK   66  A    between atoms: _175  and  _176
REMARK   67  A    between atoms: _175  and  _178
REMARK   68  A    between atoms: _178  and  _179
REMARK   69  A    between atoms: _181  and  _183
REMARK   70  A    between atoms: _183  and  _184
REMARK   71  A    between atoms: _186  and  _188
REMARK   72  A    between atoms: _188  and  _189
REMARK   73  A    between atoms: _191  and  _193
REMARK   74  A    between atoms: _193  and  _194
REMARK   75  A    between atoms: _193  and  _196
REMARK   76  A    between atoms: _196  and  _197
REMARK   77  A    between atoms: _200  and  _202
REMARK   78  A    between atoms: _202  and  _203
REMARK   79  A    between atoms: _202  and  _205
REMARK   80  A    between atoms: _205  and  _206
REMARK   81  A    between atoms: _206  and  _207
REMARK   82  A    between atoms: _212  and  _214
REMARK   83  A    between atoms: _214  and  _215
REMARK   84  A    between atoms: _214  and  _217
REMARK   85  A    between atoms: _217  and  _218
REMARK   86  A    between atoms: _218  and  _219
REMARK   87  A    between atoms: _219  and  _220
REMARK   88  A    between atoms: _229  and  _231
REMARK   89  A    between atoms: _231  and  _232
REMARK   90  A    between atoms: _231  and  _234
REMARK   91  A    between atoms: _234  and  _235
REMARK   92  A    between atoms: _238  and  _240
REMARK   93  A    between atoms: _240  and  _241
REMARK   94  A    between atoms: _240  and  _243
REMARK   95  A    between atoms: _243  and  _244
REMARK   96  A    between atoms: _244  and  _245
REMARK   97  A    between atoms: _245  and  _246
REMARK   98  A    between atoms: _255  and  _257
REMARK   99  A    between atoms: _257  and  _258
REMARK  100  A    between atoms: _260  and  _262
REMARK  101  A    between atoms: _262  and  _263
REMARK  102  A    between atoms: _262  and  _265
REMARK  103  A    between atoms: _265  and  _266
REMARK  104  A    between atoms: _271  and  _272
REMARK  105  A    between atoms: _274  and  _276
REMARK  106  A    between atoms: _276  and  _277
REMARK  107  A    between atoms: _276  and  _279
REMARK  108  A    between atoms: _279  and  _280
REMARK  109  A    between atoms: _283  and  _285
REMARK  110  A    between atoms: _285  and  _286
REMARK  111  A    between atoms: _285  and  _288
REMARK  112  A    between atoms: _288  and  _289
REMARK  113  A    between atoms: _289  and  _290
REMARK  114  A    between atoms: _290  and  _291
REMARK  115  A    between atoms: _300  and  _302
REMARK  116  A    between atoms: _302  and  _303
REMARK  117  A    between atoms: _302  and  _305
REMARK  118  A    between atoms: _305  and  _306
REMARK  119  A    between atoms: _309  and  _311
REMARK  120  A    between atoms: _311  and  _312
REMARK  121  A    between atoms: _311  and  _314
REMARK  122  A    between atoms: _314  and  _315
REMARK  123  A    between atoms: _320  and  _322
REMARK  124  A    between atoms: _322  and  _323
REMARK  125  A    between atoms: _322  and  _325
REMARK  126  A    between atoms: _325  and  _326
REMARK  127  A    between atoms: _329  and  _331
REMARK  128  A    between atoms: _331  and  _332
REMARK  129  A    between atoms: _331  and  _334
REMARK  130  A    between atoms: _334  and  _335
REMARK  131  A    between atoms: _338  and  _340
REMARK  132  A    between atoms: _340  and  _341
REMARK  133  A    between atoms: _340  and  _343
REMARK  134  A    between atoms: _343  and  _344
REMARK  135  A    between atoms: _344  and  _345
REMARK  136  A    between atoms: _348  and  _350
REMARK  137  A    between atoms: _350  and  _351
REMARK  138  A    between atoms: _350  and  _353
REMARK  139  A    between atoms: _353  and  _354
REMARK  140  A    between atoms: _354  and  _355
REMARK  141  A    between atoms: _360  and  _362
REMARK  142  A    between atoms: _362  and  _363
REMARK  143  A    between atoms: _365  and  _367
REMARK  144  A    between atoms: _367  and  _368
REMARK  145  A    between atoms: _367  and  _370
REMARK  146  A    between atoms: _370  and  _371
REMARK  147  A    between atoms: _381  and  _383
REMARK  148  A    between atoms: _383  and  _384
REMARK  149  A    between atoms: _387  and  _389
REMARK  150  A    between atoms: _389  and  _390
REMARK  151  A    between atoms: _393  and  _395
REMARK  152  A    between atoms: _395  and  _396
REMARK  153  A    between atoms: _398  and  _400
REMARK  154  A    between atoms: _400  and  _401
REMARK  155  A    between atoms: _403  and  _405
REMARK  156  A    between atoms: _405  and  _406
REMARK  157  A    between atoms: _408  and  _410
REMARK  158  A    between atoms: _410  and  _411
REMARK  159  A    between atoms: _410  and  _413
REMARK  160  A    between atoms: _413  and  _414
REMARK  161  A    between atoms: _419  and  _421
REMARK  162  A    between atoms: _421  and  _422
REMARK  163  A    between atoms: _421  and  _424
REMARK  164  A    between atoms: _424  and  _425
REMARK  165  A    between atoms: _427  and  _429
REMARK  166  A    between atoms: _429  and  _430
REMARK  167  A    between atoms: _429  and  _432
REMARK  168  A    between atoms: _432  and  _433
REMARK  169  A    between atoms: _436  and  _438
REMARK  170  A    between atoms: _438  and  _439
REMARK  171  A    between atoms: _438  and  _441
REMARK  172  A    between atoms: _441  and  _442
REMARK  173  A    between atoms: _442  and  _443
REMARK  174  A    between atoms: _443  and  _444
REMARK  175  A    between atoms: _453  and  _455
REMARK  176  A    between atoms: _455  and  _456
REMARK  177  A    between atoms: _455  and  _458
REMARK  178  A    between atoms: _458  and  _459
REMARK  179  A    between atoms: _465  and  _467
REMARK  180  A    between atoms: _467  and  _468
REMARK  181  A    between atoms: _467  and  _470
REMARK  182  A    between atoms: _470  and  _471
REMARK  183  A    between atoms: _471  and  _472
REMARK  184  A    between atoms: _472  and  _473
REMARK  185  A    between atoms: _473  and  _474
REMARK  186  A    between atoms: _478  and  _480
REMARK  187  A    between atoms: _480  and  _481
REMARK  188  A    between atoms: _480  and  _483
REMARK  189  A    between atoms: _483  and  _484
REMARK  190  A    between atoms: _484  and  _485
REMARK  191  A    between atoms: _490  and  _492
REMARK  192  A    between atoms: _492  and  _493
REMARK  193  A    between atoms: _492  and  _495
REMARK  194  A    between atoms: _495  and  _496
REMARK  195  A    between atoms: _499  and  _501
REMARK  196  A    between atoms: _501  and  _502
REMARK  197  A    between atoms: _501  and  _504
REMARK  198  A    between atoms: _504  and  _505
REMARK  199  A    between atoms: _508  and  _510
REMARK  200  A    between atoms: _510  and  _511
REMARK  201  A    between atoms: _514  and  _516
REMARK  202  A    between atoms: _516  and  _517
REMARK  203  A    between atoms: _516  and  _519
REMARK  204  A    between atoms: _519  and  _520
REMARK  205  A    between atoms: _523  and  _525
REMARK  206  A    between atoms: _525  and  _526
REMARK  207  A    between atoms: _525  and  _528
REMARK  208  A    between atoms: _531  and  _533
REMARK  209  A    between atoms: _533  and  _534
REMARK  210  A    between atoms: _536  and  _538
REMARK  211  A    between atoms: _538  and  _539
REMARK  212  A    between atoms: _538  and  _541
REMARK  213  A    between atoms: _541  and  _542
REMARK  214  A    between atoms: _544  and  _546
REMARK  215  A    between atoms: _546  and  _547
REMARK  216  A    between atoms: _546  and  _549
REMARK  217  A    between atoms: _549  and  _550
REMARK  218  A    between atoms: _556  and  _558
REMARK  219  A    between atoms: _558  and  _559
REMARK  220  A    between atoms: _558  and  _561
REMARK  221  A    between atoms: _561  and  _562
REMARK  222  A    between atoms: _565  and  _567
REMARK  223  A    between atoms: _567  and  _568
REMARK  224  A    between atoms: _570  and  _572
REMARK  225  A    between atoms: _572  and  _573
REMARK  226  A    between atoms: _575  and  _577
REMARK  227  A    between atoms: _577  and  _578
REMARK  228  A    between atoms: _577  and  _580
REMARK  229  A    between atoms: _580  and  _581
REMARK  230  A    between atoms: _586  and  _587
REMARK  231  A    between atoms: _589  and  _591
REMARK  232  A    between atoms: _591  and  _592
REMARK  233  A    between atoms: _594  and  _596
REMARK  234  A    between atoms: _596  and  _597
REMARK  235  A    between atoms: _596  and  _599
REMARK  236  A    between atoms: _599  and  _600
REMARK  237  A    between atoms: _606  and  _608
REMARK  238  A    between atoms: _608  and  _609
REMARK  239  A    between atoms: _608  and  _611
REMARK  240  A    between atoms: _611  and  _612
REMARK  241  A    between atoms: _615  and  _617
REMARK  242  A    between atoms: _617  and  _618
REMARK  243  A    between atoms: _617  and  _620
REMARK  244  A    between atoms: _620  and  _621
REMARK  245  A    between atoms: _621  and  _622
REMARK  246  A    between atoms: _627  and  _629
REMARK  247  A    between atoms: _629  and  _630
REMARK  248  A    between atoms: _633  and  _635
REMARK  249  A    between atoms: _635  and  _636
REMARK  250  A    between atoms: _638  and  _640
REMARK  251  A    between atoms: _640  and  _641
REMARK  252  A    between atoms: _640  and  _643
REMARK  253  A    between atoms: _643  and  _644
REMARK  254  A    between atoms: _644  and  _645
REMARK  255  A    between atoms: _648  and  _650
REMARK  256  A    between atoms: _650  and  _651
REMARK  257  A    between atoms: _650  and  _653
REMARK  258  A    between atoms: _653  and  _654
REMARK  259  A    between atoms: _657  and  _659
REMARK  260  A    between atoms: _659  and  _660
REMARK  261  A    between atoms: _659  and  _662
REMARK  262  A    between atoms: _662  and  _663
REMARK  263  A    between atoms: _663  and  _664
REMARK  264  A    between atoms: _664  and  _665
REMARK  265  A    between atoms: _674  and  _676
REMARK  266  A    between atoms: _676  and  _677
REMARK  267  A    between atoms: _676  and  _679
REMARK  268  A    between atoms: _679  and  _680
REMARK  269  A    between atoms: _685  and  _686
REMARK  270  A    between atoms: _688  and  _690
REMARK  271  A    between atoms: _690  and  _691
REMARK  272  A    between atoms: _693  and  _695
REMARK  273  A    between atoms: _695  and  _696
REMARK  274  A    between atoms: _695  and  _698
REMARK  275  A    between atoms: _698  and  _699
REMARK  276  A    between atoms: _705  and  _707
REMARK  277  A    between atoms: _707  and  _708
REMARK  278  A    between atoms: _707  and  _710
REMARK  279  A    between atoms: _710  and  _711
REMARK  280  A    between atoms: _714  and  _716
REMARK  281  A    between atoms: _716  and  _717
REMARK  282  A    between atoms: _716  and  _719
REMARK  283  A    between atoms: _719  and  _720
REMARK  284  A    between atoms: _720  and  _721
REMARK  285  A    between atoms: _726  and  _728
REMARK  286  A    between atoms: _728  and  _729
REMARK  287  A    between atoms: _728  and  _731
REMARK  288  A    between atoms: _731  and  _732
REMARK  289  A    between atoms: _732  and  _733
REMARK  290  A    between atoms: _733  and  _734
REMARK  291  A    between atoms: _734  and  _735
REMARK                            x       y       z     vdW  Elec       q    Type
REMARK                         _______ _______ _______ _____ _____    ______ ____
ROOT
ATOM      1  O   HOH     1      39.046  -9.319 203.280  0.00  0.00    +0.000 OA
ENDROOT
TORSDOF 0
REMARK  Name = ../refined-set-2016/4qij/4qij_pocket.pdb
REMARK  291 active torsions:
REMARK  status: ('A' for Active; 'I' for Inactive)
REMARK    1  A    between atoms: _1  and  _3
REMARK    2  A    between atoms: _3  and  _4
REMARK    3  A    between atoms: _3  and  _6
REMARK    4  A    between atoms: _6  and  _7
REMARK    5  A    between atoms: _7  and  _8
REMARK    6  A    between atoms: _8  and  _9
REMARK    7  A    between atoms: _19  and  _20
REMARK    8  A    between atoms: _25  and  _27
REMARK    9  A    between atoms: _27  and  _28
REMARK   10  A    between atoms: _27  and  _30
REMARK   11  A    between atoms: _30  and  _31
REMARK   12  A    between atoms: _31  and  _32
REMARK   13  A    between atoms: _35  and  _37
REMARK   14  A    between atoms: _37  and  _38
REMARK   15  A    between atoms: _37  and  _40
REMARK   16  A    between atoms: _43  and  _45
REMARK   17  A    between atoms: _45  and  _46
REMARK   18  A    between atoms: _45  and  _48
REMARK   19  A    between atoms: _48  and  _49
REMARK   20  A    between atoms: _49  and  _50
REMARK   21  A    between atoms: _50  and  _51
REMARK   22  A    between atoms: _60  and  _62
REMARK   23  A    between atoms: _62  and  _63
REMARK   24  A    between atoms: _62  and  _65
REMARK   25  A    between atoms: _65  and  _66
REMARK   26  A    between atoms: _71  and  _73
REMARK   27  A    between atoms: _73  and  _74
REMARK   28  A    between atoms: _77  and  _79
REMARK   29  A    between atoms: _79  and  _80
REMARK   30  A    between atoms: _79  and  _82
REMARK   31  A    between atoms: _82  and  _83
REMARK   32  A    between atoms: _89  and  _91
REMARK   33  A    between atoms: _91  and  _92
REMARK   34  A    between atoms: _91  and  _94
REMARK   35  A    between atoms: _97  and  _99
REMARK   36  A    between atoms: _99  and  _100
REMARK   37  A    between atoms: _99  and  _102
REMARK   38  A    between atoms: _102  and  _103
REMARK   39  A    between atoms: _105  and  _107
REMARK   40  A    between atoms: _107  and  _108
REMARK   41  A    between atoms: _107  and  _110
REMARK   42  A    between atoms: _110  and  _111
REMARK   43  A    between atoms: _111  and  _112
REMARK   44  A    between atoms: _112  and  _113
REMARK   45  A    between atoms: _113  and  _114
REMARK   46  A    between atoms: _118  and  _120
REMARK   47  A    between atoms: _120  and  _121
REMARK   48  A    between atoms: _120  and  _123
REMARK   49  A    between atoms: _123  and  _124
REMARK   50  A    between atoms: _127  and  _129
REMARK   51  A    between atoms: _129  and  _130
REMARK   52  A    between atoms: _132  and  _134
REMARK   53  A    between atoms: _134  and  _135
REMARK   54  A    between atoms: _134  and  _137
REMARK   55  A    between atoms: _137  and  _138
REMARK   56  A    between atoms: _148  and  _150
REMARK   57  A    between atoms: _150  and  _151
REMARK   58  A    between atoms: _154  and  _156
REMARK   59  A    between atoms: _156  and  _157
REMARK   60  A    between atoms: _156  and  _159
REMARK   61  A    between atoms: _159  and  _160
REMARK   62  A    between atoms: _166  and  _168
REMARK   63  A    between atoms: _168  and  _169
REMARK   64  A    between atoms: _168  and  _171
REMARK   65  A    between atoms: _173  and  _175
REMARK   66  A    between atoms: _175  and  _176
REMARK   67  A    between atoms: _175  and  _178
REMARK   68  A    between atoms: _178  and  _179
REMARK   69  A    between atoms: _181  and  _183
REMARK   70  A    between atoms: _183  and  _184
REMARK   71  A    between atoms: _186  and  _188
REMARK   72  A    between atoms: _188  and  _189
REMARK   73  A    between atoms: _191  and  _193
REMARK   74  A    between atoms: _193  and  _194
REMARK   75  A    between atoms: _193  and  _196
REMARK   76  A    between atoms: _196  and  _197
REMARK   77  A    between atoms: _200  and  _202
REMARK   78  A    between atoms: _202  and  _203
REMARK   79  A    between atoms: _202  and  _205
REMARK   80  A    between atoms: _205  and  _206
REMARK   81  A    between atoms: _206  and  _207
REMARK   82  A    between atoms: _212  and  _214
REMARK   83  A    between atoms: _214  and  _215
REMARK   84  A    between atoms: _214  and  _217
REMARK   85  A    between atoms: _217  and  _218
REMARK   86  A    between atoms: _218  and  _219
REMARK   87  A    between atoms: _219  and  _220
REMARK   88  A    between atoms: _229  and  _231
REMARK   89  A    between atoms: _231  and  _232
REMARK   90  A    between atoms: _231  and  _234
REMARK   91  A    between atoms: _234  and  _235
REMARK   92  A    between atoms: _238  and  _240
REMARK   93  A    between atoms: _240  and  _241
REMARK   94  A    between atoms: _240  and  _243
REMARK   95  A    between atoms: _243  and  _244
REMARK   96  A    between atoms: _244  and  _245
REMARK   97  A    between atoms: _245  and  _246
REMARK   98  A    between atoms: _255  and  _257
REMARK   99  A    between atoms: _257  and  _258
REMARK  100  A    between atoms: _260  and  _262
REMARK  101  A    between atoms: _262  and  _263
REMARK  102  A    between atoms: _262  and  _265
REMARK  103  A    between atoms: _265  and  _266
REMARK  104  A    between atoms: _271  and  _272
REMARK  105  A    between atoms: _274  and  _276
REMARK  106  A    between atoms: _276  and  _277
REMARK  107  A    between atoms: _276  and  _279
REMARK  108  A    between atoms: _279  and  _280
REMARK  109  A    between atoms: _283  and  _285
REMARK  110  A    between atoms: _285  and  _286
REMARK  111  A    between atoms: _285  and  _288
REMARK  112  A    between atoms: _288  and  _289
REMARK  113  A    between atoms: _289  and  _290
REMARK  114  A    between atoms: _290  and  _291
REMARK  115  A    between atoms: _300  and  _302
REMARK  116  A    between atoms: _302  and  _303
REMARK  117  A    between atoms: _302  and  _305
REMARK  118  A    between atoms: _305  and  _306
REMARK  119  A    between atoms: _309  and  _311
REMARK  120  A    between atoms: _311  and  _312
REMARK  121  A    between atoms: _311  and  _314
REMARK  122  A    between atoms: _314  and  _315
REMARK  123  A    between atoms: _320  and  _322
REMARK  124  A    between atoms: _322  and  _323
REMARK  125  A    between atoms: _322  and  _325
REMARK  126  A    between atoms: _325  and  _326
REMARK  127  A    between atoms: _329  and  _331
REMARK  128  A    between atoms: _331  and  _332
REMARK  129  A    between atoms: _331  and  _334
REMARK  130  A    between atoms: _334  and  _335
REMARK  131  A    between atoms: _338  and  _340
REMARK  132  A    between atoms: _340  and  _341
REMARK  133  A    between atoms: _340  and  _343
REMARK  134  A    between atoms: _343  and  _344
REMARK  135  A    between atoms: _344  and  _345
REMARK  136  A    between atoms: _348  and  _350
REMARK  137  A    between atoms: _350  and  _351
REMARK  138  A    between atoms: _350  and  _353
REMARK  139  A    between atoms: _353  and  _354
REMARK  140  A    between atoms: _354  and  _355
REMARK  141  A    between atoms: _360  and  _362
REMARK  142  A    between atoms: _362  and  _363
REMARK  143  A    between atoms: _365  and  _367
REMARK  144  A    between atoms: _367  and  _368
REMARK  145  A    between atoms: _367  and  _370
REMARK  146  A    between atoms: _370  and  _371
REMARK  147  A    between atoms: _381  and  _383
REMARK  148  A    between atoms: _383  and  _384
REMARK  149  A    between atoms: _387  and  _389
REMARK  150  A    between atoms: _389  and  _390
REMARK  151  A    between atoms: _393  and  _395
REMARK  152  A    between atoms: _395  and  _396
REMARK  153  A    between atoms: _398  and  _400
REMARK  154  A    between atoms: _400  and  _401
REMARK  155  A    between atoms: _403  and  _405
REMARK  156  A    between atoms: _405  and  _406
REMARK  157  A    between atoms: _408  and  _410
REMARK  158  A    between atoms: _410  and  _411
REMARK  159  A    between atoms: _410  and  _413
REMARK  160  A    between atoms: _413  and  _414
REMARK  161  A    between atoms: _419  and  _421
REMARK  162  A    between atoms: _421  and  _422
REMARK  163  A    between atoms: _421  and  _424
REMARK  164  A    between atoms: _424  and  _425
REMARK  165  A    between atoms: _427  and  _429
REMARK  166  A    between atoms: _429  and  _430
REMARK  167  A    between atoms: _429  and  _432
REMARK  168  A    between atoms: _432  and  _433
REMARK  169  A    between atoms: _436  and  _438
REMARK  170  A    between atoms: _438  and  _439
REMARK  171  A    between atoms: _438  and  _441
REMARK  172  A    between atoms: _441  and  _442
REMARK  173  A    between atoms: _442  and  _443
REMARK  174  A    between atoms: _443  and  _444
REMARK  175  A    between atoms: _453  and  _455
REMARK  176  A    between atoms: _455  and  _456
REMARK  177  A    between atoms: _455  and  _458
REMARK  178  A    between atoms: _458  and  _459
REMARK  179  A    between atoms: _465  and  _467
REMARK  180  A    between atoms: _467  and  _468
REMARK  181  A    between atoms: _467  and  _470
REMARK  182  A    between atoms: _470  and  _471
REMARK  183  A    between atoms: _471  and  _472
REMARK  184  A    between atoms: _472  and  _473
REMARK  185  A    between atoms: _473  and  _474
REMARK  186  A    between atoms: _478  and  _480
REMARK  187  A    between atoms: _480  and  _481
REMARK  188  A    between atoms: _480  and  _483
REMARK  189  A    between atoms: _483  and  _484
REMARK  190  A    between atoms: _484  and  _485
REMARK  191  A    between atoms: _490  and  _492
REMARK  192  A    between atoms: _492  and  _493
REMARK  193  A    between atoms: _492  and  _495
REMARK  194  A    between atoms: _495  and  _496
REMARK  195  A    between atoms: _499  and  _501
REMARK  196  A    between atoms: _501  and  _502
REMARK  197  A    between atoms: _501  and  _504
REMARK  198  A    between atoms: _504  and  _505
REMARK  199  A    between atoms: _508  and  _510
REMARK  200  A    between atoms: _510  and  _511
REMARK  201  A    between atoms: _514  and  _516
REMARK  202  A    between atoms: _516  and  _517
REMARK  203  A    between atoms: _516  and  _519
REMARK  204  A    between atoms: _519  and  _520
REMARK  205  A    between atoms: _523  and  _525
REMARK  206  A    between atoms: _525  and  _526
REMARK  207  A    between atoms: _525  and  _528
REMARK  208  A    between atoms: _531  and  _533
REMARK  209  A    between atoms: _533  and  _534
REMARK  210  A    between atoms: _536  and  _538
REMARK  211  A    between atoms: _538  and  _539
REMARK  212  A    between atoms: _538  and  _541
REMARK  213  A    between atoms: _541  and  _542
REMARK  214  A    between atoms: _544  and  _546
REMARK  215  A    between atoms: _546  and  _547
REMARK  216  A    between atoms: _546  and  _549
REMARK  217  A    between atoms: _549  and  _550
REMARK  218  A    between atoms: _556  and  _558
REMARK  219  A    between atoms: _558  and  _559
REMARK  220  A    between atoms: _558  and  _561
REMARK  221  A    between atoms: _561  and  _562
REMARK  222  A    between atoms: _565  and  _567
REMARK  223  A    between atoms: _567  and  _568
REMARK  224  A    between atoms: _570  and  _572
REMARK  225  A    between atoms: _572  and  _573
REMARK  226  A    between atoms: _575  and  _577
REMARK  227  A    between atoms: _577  and  _578
REMARK  228  A    between atoms: _577  and  _580
REMARK  229  A    between atoms: _580  and  _581
REMARK  230  A    between atoms: _586  and  _587
REMARK  231  A    between atoms: _589  and  _591
REMARK  232  A    between atoms: _591  and  _592
REMARK  233  A    between atoms: _594  and  _596
REMARK  234  A    between atoms: _596  and  _597
REMARK  235  A    between atoms: _596  and  _599
REMARK  236  A    between atoms: _599  and  _600
REMARK  237  A    between atoms: _606  and  _608
REMARK  238  A    between atoms: _608  and  _609
REMARK  239  A    between atoms: _608  and  _611
REMARK  240  A    between atoms: _611  and  _612
REMARK  241  A    between atoms: _615  and  _617
REMARK  242  A    between atoms: _617  and  _618
REMARK  243  A    between atoms: _617  and  _620
REMARK  244  A    between atoms: _620  and  _621
REMARK  245  A    between atoms: _621  and  _622
REMARK  246  A    between atoms: _627  and  _629
REMARK  247  A    between atoms: _629  and  _630
REMARK  248  A    between atoms: _633  and  _635
REMARK  249  A    between atoms: _635  and  _636
REMARK  250  A    between atoms: _638  and  _640
REMARK  251  A    between atoms: _640  and  _641
REMARK  252  A    between atoms: _640  and  _643
REMARK  253  A    between atoms: _643  and  _644
REMARK  254  A    between atoms: _644  and  _645
REMARK  255  A    between atoms: _648  and  _650
REMARK  256  A    between atoms: _650  and  _651
REMARK  257  A    between atoms: _650  and  _653
REMARK  258  A    between atoms: _653  and  _654
REMARK  259  A    between atoms: _657  and  _659
REMARK  260  A    between atoms: _659  and  _660
REMARK  261  A    between atoms: _659  and  _662
REMARK  262  A    between atoms: _662  and  _663
REMARK  263  A    between atoms: _663  and  _664
REMARK  264  A    between atoms: _664  and  _665
REMARK  265  A    between atoms: _674  and  _676
REMARK  266  A    between atoms: _676  and  _677
REMARK  267  A    between atoms: _676  and  _679
REMARK  268  A    between atoms: _679  and  _680
REMARK  269  A    between atoms: _685  and  _686
REMARK  270  A    between atoms: _688  and  _690
REMARK  271  A    between atoms: _690  and  _691
REMARK  272  A    between atoms: _693  and  _695
REMARK  273  A    between atoms: _695  and  _696
REMARK  274  A    between atoms: _695  and  _698
REMARK  275  A    between atoms: _698  and  _699
REMARK  276  A    between atoms: _705  and  _707
REMARK  277  A    between atoms: _707  and  _708
REMARK  278  A    between atoms: _707  and  _710
REMARK  279  A    between atoms: _710  and  _711
REMARK  280  A    between atoms: _714  and  _716
REMARK  281  A    between atoms: _716  and  _717
REMARK  282  A    between atoms: _716  and  _719
REMARK  283  A    between atoms: _719  and  _720
REMARK  284  A    between atoms: _720  and  _721
REMARK  285  A    between atoms: _726  and  _728
REMARK  286  A    between atoms: _728  and  _729
REMARK  287  A    between atoms: _728  and  _731
REMARK  288  A    between atoms: _731  and  _732
REMARK  289  A    between atoms: _732  and  _733
REMARK  290  A    between atoms: _733  and  _734
REMARK  291  A    between atoms: _734  and  _735
REMARK                            x       y       z     vdW  Elec       q    Type
REMARK                         _______ _______ _______ _____ _____    ______ ____
ROOT
ATOM      1  O   HOH     1      33.628 -24.517 191.813  0.00  0.00    +0.000 OA
ENDROOT
TORSDOF 0
REMARK  Name = ../refined-set-2016/4qij/4qij_pocket.pdb
REMARK  291 active torsions:
REMARK  status: ('A' for Active; 'I' for Inactive)
REMARK    1  A    between atoms: _1  and  _3
REMARK    2  A    between atoms: _3  and  _4
REMARK    3  A    between atoms: _3  and  _6
REMARK    4  A    between atoms: _6  and  _7
REMARK    5  A    between atoms: _7  and  _8
REMARK    6  A    between atoms: _8  and  _9
REMARK    7  A    between atoms: _19  and  _20
REMARK    8  A    between atoms: _25  and  _27
REMARK    9  A    between atoms: _27  and  _28
REMARK   10  A    between atoms: _27  and  _30
REMARK   11  A    between atoms: _30  and  _31
REMARK   12  A    between atoms: _31  and  _32
REMARK   13  A    between atoms: _35  and  _37
REMARK   14  A    between atoms: _37  and  _38
REMARK   15  A    between atoms: _37  and  _40
REMARK   16  A    between atoms: _43  and  _45
REMARK   17  A    between atoms: _45  and  _46
REMARK   18  A    between atoms: _45  and  _48
REMARK   19  A    between atoms: _48  and  _49
REMARK   20  A    between atoms: _49  and  _50
REMARK   21  A    between atoms: _50  and  _51
REMARK   22  A    between atoms: _60  and  _62
REMARK   23  A    between atoms: _62  and  _63
REMARK   24  A    between atoms: _62  and  _65
REMARK   25  A    between atoms: _65  and  _66
REMARK   26  A    between atoms: _71  and  _73
REMARK   27  A    between atoms: _73  and  _74
REMARK   28  A    between atoms: _77  and  _79
REMARK   29  A    between atoms: _79  and  _80
REMARK   30  A    between atoms: _79  and  _82
REMARK   31  A    between atoms: _82  and  _83
REMARK   32  A    between atoms: _89  and  _91
REMARK   33  A    between atoms: _91  and  _92
REMARK   34  A    between atoms: _91  and  _94
REMARK   35  A    between atoms: _97  and  _99
REMARK   36  A    between atoms: _99  and  _100
REMARK   37  A    between atoms: _99  and  _102
REMARK   38  A    between atoms: _102  and  _103
REMARK   39  A    between atoms: _105  and  _107
REMARK   40  A    between atoms: _107  and  _108
REMARK   41  A    between atoms: _107  and  _110
REMARK   42  A    between atoms: _110  and  _111
REMARK   43  A    between atoms: _111  and  _112
REMARK   44  A    between atoms: _112  and  _113
REMARK   45  A    between atoms: _113  and  _114
REMARK   46  A    between atoms: _118  and  _120
REMARK   47  A    between atoms: _120  and  _121
REMARK   48  A    between atoms: _120  and  _123
REMARK   49  A    between atoms: _123  and  _124
REMARK   50  A    between atoms: _127  and  _129
REMARK   51  A    between atoms: _129  and  _130
REMARK   52  A    between atoms: _132  and  _134
REMARK   53  A    between atoms: _134  and  _135
REMARK   54  A    between atoms: _134  and  _137
REMARK   55  A    between atoms: _137  and  _138
REMARK   56  A    between atoms: _148  and  _150
REMARK   57  A    between atoms: _150  and  _151
REMARK   58  A    between atoms: _154  and  _156
REMARK   59  A    between atoms: _156  and  _157
REMARK   60  A    between atoms: _156  and  _159
REMARK   61  A    between atoms: _159  and  _160
REMARK   62  A    between atoms: _166  and  _168
REMARK   63  A    between atoms: _168  and  _169
REMARK   64  A    between atoms: _168  and  _171
REMARK   65  A    between atoms: _173  and  _175
REMARK   66  A    between atoms: _175  and  _176
REMARK   67  A    between atoms: _175  and  _178
REMARK   68  A    between atoms: _178  and  _179
REMARK   69  A    between atoms: _181  and  _183
REMARK   70  A    between atoms: _183  and  _184
REMARK   71  A    between atoms: _186  and  _188
REMARK   72  A    between atoms: _188  and  _189
REMARK   73  A    between atoms: _191  and  _193
REMARK   74  A    between atoms: _193  and  _194
REMARK   75  A    between atoms: _193  and  _196
REMARK   76  A    between atoms: _196  and  _197
REMARK   77  A    between atoms: _200  and  _202
REMARK   78  A    between atoms: _202  and  _203
REMARK   79  A    between atoms: _202  and  _205
REMARK   80  A    between atoms: _205  and  _206
REMARK   81  A    between atoms: _206  and  _207
REMARK   82  A    between atoms: _212  and  _214
REMARK   83  A    between atoms: _214  and  _215
REMARK   84  A    between atoms: _214  and  _217
REMARK   85  A    between atoms: _217  and  _218
REMARK   86  A    between atoms: _218  and  _219
REMARK   87  A    between atoms: _219  and  _220
REMARK   88  A    between atoms: _229  and  _231
REMARK   89  A    between atoms: _231  and  _232
REMARK   90  A    between atoms: _231  and  _234
REMARK   91  A    between atoms: _234  and  _235
REMARK   92  A    between atoms: _238  and  _240
REMARK   93  A    between atoms: _240  and  _241
REMARK   94  A    between atoms: _240  and  _243
REMARK   95  A    between atoms: _243  and  _244
REMARK   96  A    between atoms: _244  and  _245
REMARK   97  A    between atoms: _245  and  _246
REMARK   98  A    between atoms: _255  and  _257
REMARK   99  A    between atoms: _257  and  _258
REMARK  100  A    between atoms: _260  and  _262
REMARK  101  A    between atoms: _262  and  _263
REMARK  102  A    between atoms: _262  and  _265
REMARK  103  A    between atoms: _265  and  _266
REMARK  104  A    between atoms: _271  and  _272
REMARK  105  A    between atoms: _274  and  _276
REMARK  106  A    between atoms: _276  and  _277
REMARK  107  A    between atoms: _276  and  _279
REMARK  108  A    between atoms: _279  and  _280
REMARK  109  A    between atoms: _283  and  _285
REMARK  110  A    between atoms: _285  and  _286
REMARK  111  A    between atoms: _285  and  _288
REMARK  112  A    between atoms: _288  and  _289
REMARK  113  A    between atoms: _289  and  _290
REMARK  114  A    between atoms: _290  and  _291
REMARK  115  A    between atoms: _300  and  _302
REMARK  116  A    between atoms: _302  and  _303
REMARK  117  A    between atoms: _302  and  _305
REMARK  118  A    between atoms: _305  and  _306
REMARK  119  A    between atoms: _309  and  _311
REMARK  120  A    between atoms: _311  and  _312
REMARK  121  A    between atoms: _311  and  _314
REMARK  122  A    between atoms: _314  and  _315
REMARK  123  A    between atoms: _320  and  _322
REMARK  124  A    between atoms: _322  and  _323
REMARK  125  A    between atoms: _322  and  _325
REMARK  126  A    between atoms: _325  and  _326
REMARK  127  A    between atoms: _329  and  _331
REMARK  128  A    between atoms: _331  and  _332
REMARK  129  A    between atoms: _331  and  _334
REMARK  130  A    between atoms: _334  and  _335
REMARK  131  A    between atoms: _338  and  _340
REMARK  132  A    between atoms: _340  and  _341
REMARK  133  A    between atoms: _340  and  _343
REMARK  134  A    between atoms: _343  and  _344
REMARK  135  A    between atoms: _344  and  _345
REMARK  136  A    between atoms: _348  and  _350
REMARK  137  A    between atoms: _350  and  _351
REMARK  138  A    between atoms: _350  and  _353
REMARK  139  A    between atoms: _353  and  _354
REMARK  140  A    between atoms: _354  and  _355
REMARK  141  A    between atoms: _360  and  _362
REMARK  142  A    between atoms: _362  and  _363
REMARK  143  A    between atoms: _365  and  _367
REMARK  144  A    between atoms: _367  and  _368
REMARK  145  A    between atoms: _367  and  _370
REMARK  146  A    between atoms: _370  and  _371
REMARK  147  A    between atoms: _381  and  _383
REMARK  148  A    between atoms: _383  and  _384
REMARK  149  A    between atoms: _387  and  _389
REMARK  150  A    between atoms: _389  and  _390
REMARK  151  A    between atoms: _393  and  _395
REMARK  152  A    between atoms: _395  and  _396
REMARK  153  A    between atoms: _398  and  _400
REMARK  154  A    between atoms: _400  and  _401
REMARK  155  A    between atoms: _403  and  _405
REMARK  156  A    between atoms: _405  and  _406
REMARK  157  A    between atoms: _408  and  _410
REMARK  158  A    between atoms: _410  and  _411
REMARK  159  A    between atoms: _410  and  _413
REMARK  160  A    between atoms: _413  and  _414
REMARK  161  A    between atoms: _419  and  _421
REMARK  162  A    between atoms: _421  and  _422
REMARK  163  A    between atoms: _421  and  _424
REMARK  164  A    between atoms: _424  and  _425
REMARK  165  A    between atoms: _427  and  _429
REMARK  166  A    between atoms: _429  and  _430
REMARK  167  A    between atoms: _429  and  _432
REMARK  168  A    between atoms: _432  and  _433
REMARK  169  A    between atoms: _436  and  _438
REMARK  170  A    between atoms: _438  and  _439
REMARK  171  A    between atoms: _438  and  _441
REMARK  172  A    between atoms: _441  and  _442
REMARK  173  A    between atoms: _442  and  _443
REMARK  174  A    between atoms: _443  and  _444
REMARK  175  A    between atoms: _453  and  _455
REMARK  176  A    between atoms: _455  and  _456
REMARK  177  A    between atoms: _455  and  _458
REMARK  178  A    between atoms: _458  and  _459
REMARK  179  A    between atoms: _465  and  _467
REMARK  180  A    between atoms: _467  and  _468
REMARK  181  A    between atoms: _467  and  _470
REMARK  182  A    between atoms: _470  and  _471
REMARK  183  A    between atoms: _471  and  _472
REMARK  184  A    between atoms: _472  and  _473
REMARK  185  A    between atoms: _473  and  _474
REMARK  186  A    between atoms: _478  and  _480
REMARK  187  A    between atoms: _480  and  _481
REMARK  188  A    between atoms: _480  and  _483
REMARK  189  A    between atoms: _483  and  _484
REMARK  190  A    between atoms: _484  and  _485
REMARK  191  A    between atoms: _490  and  _492
REMARK  192  A    between atoms: _492  and  _493
REMARK  193  A    between atoms: _492  and  _495
REMARK  194  A    between atoms: _495  and  _496
REMARK  195  A    between atoms: _499  and  _501
REMARK  196  A    between atoms: _501  and  _502
REMARK  197  A    between atoms: _501  and  _504
REMARK  198  A    between atoms: _504  and  _505
REMARK  199  A    between atoms: _508  and  _510
REMARK  200  A    between atoms: _510  and  _511
REMARK  201  A    between atoms: _514  and  _516
REMARK  202  A    between atoms: _516  and  _517
REMARK  203  A    between atoms: _516  and  _519
REMARK  204  A    between atoms: _519  and  _520
REMARK  205  A    between atoms: _523  and  _525
REMARK  206  A    between atoms: _525  and  _526
REMARK  207  A    between atoms: _525  and  _528
REMARK  208  A    between atoms: _531  and  _533
REMARK  209  A    between atoms: _533  and  _534
REMARK  210  A    between atoms: _536  and  _538
REMARK  211  A    between atoms: _538  and  _539
REMARK  212  A    between atoms: _538  and  _541
REMARK  213  A    between atoms: _541  and  _542
REMARK  214  A    between atoms: _544  and  _546
REMARK  215  A    between atoms: _546  and  _547
REMARK  216  A    between atoms: _546  and  _549
REMARK  217  A    between atoms: _549  and  _550
REMARK  218  A    between atoms: _556  and  _558
REMARK  219  A    between atoms: _558  and  _559
REMARK  220  A    between atoms: _558  and  _561
REMARK  221  A    between atoms: _561  and  _562
REMARK  222  A    between atoms: _565  and  _567
REMARK  223  A    between atoms: _567  and  _568
REMARK  224  A    between atoms: _570  and  _572
REMARK  225  A    between atoms: _572  and  _573
REMARK  226  A    between atoms: _575  and  _577
REMARK  227  A    between atoms: _577  and  _578
REMARK  228  A    between atoms: _577  and  _580
REMARK  229  A    between atoms: _580  and  _581
REMARK  230  A    between atoms: _586  and  _587
REMARK  231  A    between atoms: _589  and  _591
REMARK  232  A    between atoms: _591  and  _592
REMARK  233  A    between atoms: _594  and  _596
REMARK  234  A    between atoms: _596  and  _597
REMARK  235  A    between atoms: _596  and  _599
REMARK  236  A    between atoms: _599  and  _600
REMARK  237  A    between atoms: _606  and  _608
REMARK  238  A    between atoms: _608  and  _609
REMARK  239  A    between atoms: _608  and  _611
REMARK  240  A    between atoms: _611  and  _612
REMARK  241  A    between atoms: _615  and  _617
REMARK  242  A    between atoms: _617  and  _618
REMARK  243  A    between atoms: _617  and  _620
REMARK  244  A    between atoms: _620  and  _621
REMARK  245  A    between atoms: _621  and  _622
REMARK  246  A    between atoms: _627  and  _629
REMARK  247  A    between atoms: _629  and  _630
REMARK  248  A    between atoms: _633  and  _635
REMARK  249  A    between atoms: _635  and  _636
REMARK  250  A    between atoms: _638  and  _640
REMARK  251  A    between atoms: _640  and  _641
REMARK  252  A    between atoms: _640  and  _643
REMARK  253  A    between atoms: _643  and  _644
REMARK  254  A    between atoms: _644  and  _645
REMARK  255  A    between atoms: _648  and  _650
REMARK  256  A    between atoms: _650  and  _651
REMARK  257  A    between atoms: _650  and  _653
REMARK  258  A    between atoms: _653  and  _654
REMARK  259  A    between atoms: _657  and  _659
REMARK  260  A    between atoms: _659  and  _660
REMARK  261  A    between atoms: _659  and  _662
REMARK  262  A    between atoms: _662  and  _663
REMARK  263  A    between atoms: _663  and  _664
REMARK  264  A    between atoms: _664  and  _665
REMARK  265  A    between atoms: _674  and  _676
REMARK  266  A    between atoms: _676  and  _677
REMARK  267  A    between atoms: _676  and  _679
REMARK  268  A    between atoms: _679  and  _680
REMARK  269  A    between atoms: _685  and  _686
REMARK  270  A    between atoms: _688  and  _690
REMARK  271  A    between atoms: _690  and  _691
REMARK  272  A    between atoms: _693  and  _695
REMARK  273  A    between atoms: _695  and  _696
REMARK  274  A    between atoms: _695  and  _698
REMARK  275  A    between atoms: _698  and  _699
REMARK  276  A    between atoms: _705  and  _707
REMARK  277  A    between atoms: _707  and  _708
REMARK  278  A    between atoms: _707  and  _710
REMARK  279  A    between atoms: _710  and  _711
REMARK  280  A    between atoms: _714  and  _716
REMARK  281  A    between atoms: _716  and  _717
REMARK  282  A    between atoms: _716  and  _719
REMARK  283  A    between atoms: _719  and  _720
REMARK  284  A    between atoms: _720  and  _721
REMARK  285  A    between atoms: _726  and  _728
REMARK  286  A    between atoms: _728  and  _729
REMARK  287  A    between atoms: _728  and  _731
REMARK  288  A    between atoms: _731  and  _732
REMARK  289  A    between atoms: _732  and  _733
REMARK  290  A    between atoms: _733  and  _734
REMARK  291  A    between atoms: _734  and  _735
REMARK                            x       y       z     vdW  Elec       q    Type
REMARK                         _______ _______ _______ _____ _____    ______ ____
ROOT
ATOM      1  O   HOH     1      21.014 -12.257 192.718  0.00  0.00    +0.000 OA
ENDROOT
TORSDOF 0
REMARK  Name = ../refined-set-2016/4qij/4qij_pocket.pdb
REMARK  291 active torsions:
REMARK  status: ('A' for Active; 'I' for Inactive)
REMARK    1  A    between atoms: _1  and  _3
REMARK    2  A    between atoms: _3  and  _4
REMARK    3  A    between atoms: _3  and  _6
REMARK    4  A    between atoms: _6  and  _7
REMARK    5  A    between atoms: _7  and  _8
REMARK    6  A    between atoms: _8  and  _9
REMARK    7  A    between atoms: _19  and  _20
REMARK    8  A    between atoms: _25  and  _27
REMARK    9  A    between atoms: _27  and  _28
REMARK   10  A    between atoms: _27  and  _30
REMARK   11  A    between atoms: _30  and  _31
REMARK   12  A    between atoms: _31  and  _32
REMARK   13  A    between atoms: _35  and  _37
REMARK   14  A    between atoms: _37  and  _38
REMARK   15  A    between atoms: _37  and  _40
REMARK   16  A    between atoms: _43  and  _45
REMARK   17  A    between atoms: _45  and  _46
REMARK   18  A    between atoms: _45  and  _48
REMARK   19  A    between atoms: _48  and  _49
REMARK   20  A    between atoms: _49  and  _50
REMARK   21  A    between atoms: _50  and  _51
REMARK   22  A    between atoms: _60  and  _62
REMARK   23  A    between atoms: _62  and  _63
REMARK   24  A    between atoms: _62  and  _65
REMARK   25  A    between atoms: _65  and  _66
REMARK   26  A    between atoms: _71  and  _73
REMARK   27  A    between atoms: _73  and  _74
REMARK   28  A    between atoms: _77  and  _79
REMARK   29  A    between atoms: _79  and  _80
REMARK   30  A    between atoms: _79  and  _82
REMARK   31  A    between atoms: _82  and  _83
REMARK   32  A    between atoms: _89  and  _91
REMARK   33  A    between atoms: _91  and  _92
REMARK   34  A    between atoms: _91  and  _94
REMARK   35  A    between atoms: _97  and  _99
REMARK   36  A    between atoms: _99  and  _100
REMARK   37  A    between atoms: _99  and  _102
REMARK   38  A    between atoms: _102  and  _103
REMARK   39  A    between atoms: _105  and  _107
REMARK   40  A    between atoms: _107  and  _108
REMARK   41  A    between atoms: _107  and  _110
REMARK   42  A    between atoms: _110  and  _111
REMARK   43  A    between atoms: _111  and  _112
REMARK   44  A    between atoms: _112  and  _113
REMARK   45  A    between atoms: _113  and  _114
REMARK   46  A    between atoms: _118  and  _120
REMARK   47  A    between atoms: _120  and  _121
REMARK   48  A    between atoms: _120  and  _123
REMARK   49  A    between atoms: _123  and  _124
REMARK   50  A    between atoms: _127  and  _129
REMARK   51  A    between atoms: _129  and  _130
REMARK   52  A    between atoms: _132  and  _134
REMARK   53  A    between atoms: _134  and  _135
REMARK   54  A    between atoms: _134  and  _137
REMARK   55  A    between atoms: _137  and  _138
REMARK   56  A    between atoms: _148  and  _150
REMARK   57  A    between atoms: _150  and  _151
REMARK   58  A    between atoms: _154  and  _156
REMARK   59  A    between atoms: _156  and  _157
REMARK   60  A    between atoms: _156  and  _159
REMARK   61  A    between atoms: _159  and  _160
REMARK   62  A    between atoms: _166  and  _168
REMARK   63  A    between atoms: _168  and  _169
REMARK   64  A    between atoms: _168  and  _171
REMARK   65  A    between atoms: _173  and  _175
REMARK   66  A    between atoms: _175  and  _176
REMARK   67  A    between atoms: _175  and  _178
REMARK   68  A    between atoms: _178  and  _179
REMARK   69  A    between atoms: _181  and  _183
REMARK   70  A    between atoms: _183  and  _184
REMARK   71  A    between atoms: _186  and  _188
REMARK   72  A    between atoms: _188  and  _189
REMARK   73  A    between atoms: _191  and  _193
REMARK   74  A    between atoms: _193  and  _194
REMARK   75  A    between atoms: _193  and  _196
REMARK   76  A    between atoms: _196  and  _197
REMARK   77  A    between atoms: _200  and  _202
REMARK   78  A    between atoms: _202  and  _203
REMARK   79  A    between atoms: _202  and  _205
REMARK   80  A    between atoms: _205  and  _206
REMARK   81  A    between atoms: _206  and  _207
REMARK   82  A    between atoms: _212  and  _214
REMARK   83  A    between atoms: _214  and  _215
REMARK   84  A    between atoms: _214  and  _217
REMARK   85  A    between atoms: _217  and  _218
REMARK   86  A    between atoms: _218  and  _219
REMARK   87  A    between atoms: _219  and  _220
REMARK   88  A    between atoms: _229  and  _231
REMARK   89  A    between atoms: _231  and  _232
REMARK   90  A    between atoms: _231  and  _234
REMARK   91  A    between atoms: _234  and  _235
REMARK   92  A    between atoms: _238  and  _240
REMARK   93  A    between atoms: _240  and  _241
REMARK   94  A    between atoms: _240  and  _243
REMARK   95  A    between atoms: _243  and  _244
REMARK   96  A    between atoms: _244  and  _245
REMARK   97  A    between atoms: _245  and  _246
REMARK   98  A    between atoms: _255  and  _257
REMARK   99  A    between atoms: _257  and  _258
REMARK  100  A    between atoms: _260  and  _262
REMARK  101  A    between atoms: _262  and  _263
REMARK  102  A    between atoms: _262  and  _265
REMARK  103  A    between atoms: _265  and  _266
REMARK  104  A    between atoms: _271  and  _272
REMARK  105  A    between atoms: _274  and  _276
REMARK  106  A    between atoms: _276  and  _277
REMARK  107  A    between atoms: _276  and  _279
REMARK  108  A    between atoms: _279  and  _280
REMARK  109  A    between atoms: _283  and  _285
REMARK  110  A    between atoms: _285  and  _286
REMARK  111  A    between atoms: _285  and  _288
REMARK  112  A    between atoms: _288  and  _289
REMARK  113  A    between atoms: _289  and  _290
REMARK  114  A    between atoms: _290  and  _291
REMARK  115  A    between atoms: _300  and  _302
REMARK  116  A    between atoms: _302  and  _303
REMARK  117  A    between atoms: _302  and  _305
REMARK  118  A    between atoms: _305  and  _306
REMARK  119  A    between atoms: _309  and  _311
REMARK  120  A    between atoms: _311  and  _312
REMARK  121  A    between atoms: _311  and  _314
REMARK  122  A    between atoms: _314  and  _315
REMARK  123  A    between atoms: _320  and  _322
REMARK  124  A    between atoms: _322  and  _323
REMARK  125  A    between atoms: _322  and  _325
REMARK  126  A    between atoms: _325  and  _326
REMARK  127  A    between atoms: _329  and  _331
REMARK  128  A    between atoms: _331  and  _332
REMARK  129  A    between atoms: _331  and  _334
REMARK  130  A    between atoms: _334  and  _335
REMARK  131  A    between atoms: _338  and  _340
REMARK  132  A    between atoms: _340  and  _341
REMARK  133  A    between atoms: _340  and  _343
REMARK  134  A    between atoms: _343  and  _344
REMARK  135  A    between atoms: _344  and  _345
REMARK  136  A    between atoms: _348  and  _350
REMARK  137  A    between atoms: _350  and  _351
REMARK  138  A    between atoms: _350  and  _353
REMARK  139  A    between atoms: _353  and  _354
REMARK  140  A    between atoms: _354  and  _355
REMARK  141  A    between atoms: _360  and  _362
REMARK  142  A    between atoms: _362  and  _363
REMARK  143  A    between atoms: _365  and  _367
REMARK  144  A    between atoms: _367  and  _368
REMARK  145  A    between atoms: _367  and  _370
REMARK  146  A    between atoms: _370  and  _371
REMARK  147  A    between atoms: _381  and  _383
REMARK  148  A    between atoms: _383  and  _384
REMARK  149  A    between atoms: _387  and  _389
REMARK  150  A    between atoms: _389  and  _390
REMARK  151  A    between atoms: _393  and  _395
REMARK  152  A    between atoms: _395  and  _396
REMARK  153  A    between atoms: _398  and  _400
REMARK  154  A    between atoms: _400  and  _401
REMARK  155  A    between atoms: _403  and  _405
REMARK  156  A    between atoms: _405  and  _406
REMARK  157  A    between atoms: _408  and  _410
REMARK  158  A    between atoms: _410  and  _411
REMARK  159  A    between atoms: _410  and  _413
REMARK  160  A    between atoms: _413  and  _414
REMARK  161  A    between atoms: _419  and  _421
REMARK  162  A    between atoms: _421  and  _422
REMARK  163  A    between atoms: _421  and  _424
REMARK  164  A    between atoms: _424  and  _425
REMARK  165  A    between atoms: _427  and  _429
REMARK  166  A    between atoms: _429  and  _430
REMARK  167  A    between atoms: _429  and  _432
REMARK  168  A    between atoms: _432  and  _433
REMARK  169  A    between atoms: _436  and  _438
REMARK  170  A    between atoms: _438  and  _439
REMARK  171  A    between atoms: _438  and  _441
REMARK  172  A    between atoms: _441  and  _442
REMARK  173  A    between atoms: _442  and  _443
REMARK  174  A    between atoms: _443  and  _444
REMARK  175  A    between atoms: _453  and  _455
REMARK  176  A    between atoms: _455  and  _456
REMARK  177  A    between atoms: _455  and  _458
REMARK  178  A    between atoms: _458  and  _459
REMARK  179  A    between atoms: _465  and  _467
REMARK  180  A    between atoms: _467  and  _468
REMARK  181  A    between atoms: _467  and  _470
REMARK  182  A    between atoms: _470  and  _471
REMARK  183  A    between atoms: _471  and  _472
REMARK  184  A    between atoms: _472  and  _473
REMARK  185  A    between atoms: _473  and  _474
REMARK  186  A    between atoms: _478  and  _480
REMARK  187  A    between atoms: _480  and  _481
REMARK  188  A    between atoms: _480  and  _483
REMARK  189  A    between atoms: _483  and  _484
REMARK  190  A    between atoms: _484  and  _485
REMARK  191  A    between atoms: _490  and  _492
REMARK  192  A    between atoms: _492  and  _493
REMARK  193  A    between atoms: _492  and  _495
REMARK  194  A    between atoms: _495  and  _496
REMARK  195  A    between atoms: _499  and  _501
REMARK  196  A    between atoms: _501  and  _502
REMARK  197  A    between atoms: _501  and  _504
REMARK  198  A    between atoms: _504  and  _505
REMARK  199  A    between atoms: _508  and  _510
REMARK  200  A    between atoms: _510  and  _511
REMARK  201  A    between atoms: _514  and  _516
REMARK  202  A    between atoms: _516  and  _517
REMARK  203  A    between atoms: _516  and  _519
REMARK  204  A    between atoms: _519  and  _520
REMARK  205  A    between atoms: _523  and  _525
REMARK  206  A    between atoms: _525  and  _526
REMARK  207  A    between atoms: _525  and  _528
REMARK  208  A    between atoms: _531  and  _533
REMARK  209  A    between atoms: _533  and  _534
REMARK  210  A    between atoms: _536  and  _538
REMARK  211  A    between atoms: _538  and  _539
REMARK  212  A    between atoms: _538  and  _541
REMARK  213  A    between atoms: _541  and  _542
REMARK  214  A    between atoms: _544  and  _546
REMARK  215  A    between atoms: _546  and  _547
REMARK  216  A    between atoms: _546  and  _549
REMARK  217  A    between atoms: _549  and  _550
REMARK  218  A    between atoms: _556  and  _558
REMARK  219  A    between atoms: _558  and  _559
REMARK  220  A    between atoms: _558  and  _561
REMARK  221  A    between atoms: _561  and  _562
REMARK  222  A    between atoms: _565  and  _567
REMARK  223  A    between atoms: _567  and  _568
REMARK  224  A    between atoms: _570  and  _572
REMARK  225  A    between atoms: _572  and  _573
REMARK  226  A    between atoms: _575  and  _577
REMARK  227  A    between atoms: _577  and  _578
REMARK  228  A    between atoms: _577  and  _580
REMARK  229  A    between atoms: _580  and  _581
REMARK  230  A    between atoms: _586  and  _587
REMARK  231  A    between atoms: _589  and  _591
REMARK  232  A    between atoms: _591  and  _592
REMARK  233  A    between atoms: _594  and  _596
REMARK  234  A    between atoms: _596  and  _597
REMARK  235  A    between atoms: _596  and  _599
REMARK  236  A    between atoms: _599  and  _600
REMARK  237  A    between atoms: _606  and  _608
REMARK  238  A    between atoms: _608  and  _609
REMARK  239  A    between atoms: _608  and  _611
REMARK  240  A    between atoms: _611  and  _612
REMARK  241  A    between atoms: _615  and  _617
REMARK  242  A    between atoms: _617  and  _618
REMARK  243  A    between atoms: _617  and  _620
REMARK  244  A    between atoms: _620  and  _621
REMARK  245  A    between atoms: _621  and  _622
REMARK  246  A    between atoms: _627  and  _629
REMARK  247  A    between atoms: _629  and  _630
REMARK  248  A    between atoms: _633  and  _635
REMARK  249  A    between atoms: _635  and  _636
REMARK  250  A    between atoms: _638  and  _640
REMARK  251  A    between atoms: _640  and  _641
REMARK  252  A    between atoms: _640  and  _643
REMARK  253  A    between atoms: _643  and  _644
REMARK  254  A    between atoms: _644  and  _645
REMARK  255  A    between atoms: _648  and  _650
REMARK  256  A    between atoms: _650  and  _651
REMARK  257  A    between atoms: _650  and  _653
REMARK  258  A    between atoms: _653  and  _654
REMARK  259  A    between atoms: _657  and  _659
REMARK  260  A    between atoms: _659  and  _660
REMARK  261  A    between atoms: _659  and  _662
REMARK  262  A    between atoms: _662  and  _663
REMARK  263  A    between atoms: _663  and  _664
REMARK  264  A    between atoms: _664  and  _665
REMARK  265  A    between atoms: _674  and  _676
REMARK  266  A    between atoms: _676  and  _677
REMARK  267  A    between atoms: _676  and  _679
REMARK  268  A    between atoms: _679  and  _680
REMARK  269  A    between atoms: _685  and  _686
REMARK  270  A    between atoms: _688  and  _690
REMARK  271  A    between atoms: _690  and  _691
REMARK  272  A    between atoms: _693  and  _695
REMARK  273  A    between atoms: _695  and  _696
REMARK  274  A    between atoms: _695  and  _698
REMARK  275  A    between atoms: _698  and  _699
REMARK  276  A    between atoms: _705  and  _707
REMARK  277  A    between atoms: _707  and  _708
REMARK  278  A    between atoms: _707  and  _710
REMARK  279  A    between atoms: _710  and  _711
REMARK  280  A    between atoms: _714  and  _716
REMARK  281  A    between atoms: _716  and  _717
REMARK  282  A    between atoms: _716  and  _719
REMARK  283  A    between atoms: _719  and  _720
REMARK  284  A    between atoms: _720  and  _721
REMARK  285  A    between atoms: _726  and  _728
REMARK  286  A    between atoms: _728  and  _729
REMARK  287  A    between atoms: _728  and  _731
REMARK  288  A    between atoms: _731  and  _732
REMARK  289  A    between atoms: _732  and  _733
REMARK  290  A    between atoms: _733  and  _734
REMARK  291  A    between atoms: _734  and  _735
REMARK                            x       y       z     vdW  Elec       q    Type
REMARK                         _______ _______ _______ _____ _____    ______ ____
ROOT
ATOM      1  O   HOH     1      36.392 -13.673 178.286  0.00  0.00    +0.000 OA
ENDROOT
TORSDOF 0
REMARK  Name = ../refined-set-2016/4qij/4qij_pocket.pdb
REMARK  291 active torsions:
REMARK  status: ('A' for Active; 'I' for Inactive)
REMARK    1  A    between atoms: _1  and  _3
REMARK    2  A    between atoms: _3  and  _4
REMARK    3  A    between atoms: _3  and  _6
REMARK    4  A    between atoms: _6  and  _7
REMARK    5  A    between atoms: _7  and  _8
REMARK    6  A    between atoms: _8  and  _9
REMARK    7  A    between atoms: _19  and  _20
REMARK    8  A    between atoms: _25  and  _27
REMARK    9  A    between atoms: _27  and  _28
REMARK   10  A    between atoms: _27  and  _30
REMARK   11  A    between atoms: _30  and  _31
REMARK   12  A    between atoms: _31  and  _32
REMARK   13  A    between atoms: _35  and  _37
REMARK   14  A    between atoms: _37  and  _38
REMARK   15  A    between atoms: _37  and  _40
REMARK   16  A    between atoms: _43  and  _45
REMARK   17  A    between atoms: _45  and  _46
REMARK   18  A    between atoms: _45  and  _48
REMARK   19  A    between atoms: _48  and  _49
REMARK   20  A    between atoms: _49  and  _50
REMARK   21  A    between atoms: _50  and  _51
REMARK   22  A    between atoms: _60  and  _62
REMARK   23  A    between atoms: _62  and  _63
REMARK   24  A    between atoms: _62  and  _65
REMARK   25  A    between atoms: _65  and  _66
REMARK   26  A    between atoms: _71  and  _73
REMARK   27  A    between atoms: _73  and  _74
REMARK   28  A    between atoms: _77  and  _79
REMARK   29  A    between atoms: _79  and  _80
REMARK   30  A    between atoms: _79  and  _82
REMARK   31  A    between atoms: _82  and  _83
REMARK   32  A    between atoms: _89  and  _91
REMARK   33  A    between atoms: _91  and  _92
REMARK   34  A    between atoms: _91  and  _94
REMARK   35  A    between atoms: _97  and  _99
REMARK   36  A    between atoms: _99  and  _100
REMARK   37  A    between atoms: _99  and  _102
REMARK   38  A    between atoms: _102  and  _103
REMARK   39  A    between atoms: _105  and  _107
REMARK   40  A    between atoms: _107  and  _108
REMARK   41  A    between atoms: _107  and  _110
REMARK   42  A    between atoms: _110  and  _111
REMARK   43  A    between atoms: _111  and  _112
REMARK   44  A    between atoms: _112  and  _113
REMARK   45  A    between atoms: _113  and  _114
REMARK   46  A    between atoms: _118  and  _120
REMARK   47  A    between atoms: _120  and  _121
REMARK   48  A    between atoms: _120  and  _123
REMARK   49  A    between atoms: _123  and  _124
REMARK   50  A    between atoms: _127  and  _129
REMARK   51  A    between atoms: _129  and  _130
REMARK   52  A    between atoms: _132  and  _134
REMARK   53  A    between atoms: _134  and  _135
REMARK   54  A    between atoms: _134  and  _137
REMARK   55  A    between atoms: _137  and  _138
REMARK   56  A    between atoms: _148  and  _150
REMARK   57  A    between atoms: _150  and  _151
REMARK   58  A    between atoms: _154  and  _156
REMARK   59  A    between atoms: _156  and  _157
REMARK   60  A    between atoms: _156  and  _159
REMARK   61  A    between atoms: _159  and  _160
REMARK   62  A    between atoms: _166  and  _168
REMARK   63  A    between atoms: _168  and  _169
REMARK   64  A    between atoms: _168  and  _171
REMARK   65  A    between atoms: _173  and  _175
REMARK   66  A    between atoms: _175  and  _176
REMARK   67  A    between atoms: _175  and  _178
REMARK   68  A    between atoms: _178  and  _179
REMARK   69  A    between atoms: _181  and  _183
REMARK   70  A    between atoms: _183  and  _184
REMARK   71  A    between atoms: _186  and  _188
REMARK   72  A    between atoms: _188  and  _189
REMARK   73  A    between atoms: _191  and  _193
REMARK   74  A    between atoms: _193  and  _194
REMARK   75  A    between atoms: _193  and  _196
REMARK   76  A    between atoms: _196  and  _197
REMARK   77  A    between atoms: _200  and  _202
REMARK   78  A    between atoms: _202  and  _203
REMARK   79  A    between atoms: _202  and  _205
REMARK   80  A    between atoms: _205  and  _206
REMARK   81  A    between atoms: _206  and  _207
REMARK   82  A    between atoms: _212  and  _214
REMARK   83  A    between atoms: _214  and  _215
REMARK   84  A    between atoms: _214  and  _217
REMARK   85  A    between atoms: _217  and  _218
REMARK   86  A    between atoms: _218  and  _219
REMARK   87  A    between atoms: _219  and  _220
REMARK   88  A    between atoms: _229  and  _231
REMARK   89  A    between atoms: _231  and  _232
REMARK   90  A    between atoms: _231  and  _234
REMARK   91  A    between atoms: _234  and  _235
REMARK   92  A    between atoms: _238  and  _240
REMARK   93  A    between atoms: _240  and  _241
REMARK   94  A    between atoms: _240  and  _243
REMARK   95  A    between atoms: _243  and  _244
REMARK   96  A    between atoms: _244  and  _245
REMARK   97  A    between atoms: _245  and  _246
REMARK   98  A    between atoms: _255  and  _257
REMARK   99  A    between atoms: _257  and  _258
REMARK  100  A    between atoms: _260  and  _262
REMARK  101  A    between atoms: _262  and  _263
REMARK  102  A    between atoms: _262  and  _265
REMARK  103  A    between atoms: _265  and  _266
REMARK  104  A    between atoms: _271  and  _272
REMARK  105  A    between atoms: _274  and  _276
REMARK  106  A    between atoms: _276  and  _277
REMARK  107  A    between atoms: _276  and  _279
REMARK  108  A    between atoms: _279  and  _280
REMARK  109  A    between atoms: _283  and  _285
REMARK  110  A    between atoms: _285  and  _286
REMARK  111  A    between atoms: _285  and  _288
REMARK  112  A    between atoms: _288  and  _289
REMARK  113  A    between atoms: _289  and  _290
REMARK  114  A    between atoms: _290  and  _291
REMARK  115  A    between atoms: _300  and  _302
REMARK  116  A    between atoms: _302  and  _303
REMARK  117  A    between atoms: _302  and  _305
REMARK  118  A    between atoms: _305  and  _306
REMARK  119  A    between atoms: _309  and  _311
REMARK  120  A    between atoms: _311  and  _312
REMARK  121  A    between atoms: _311  and  _314
REMARK  122  A    between atoms: _314  and  _315
REMARK  123  A    between atoms: _320  and  _322
REMARK  124  A    between atoms: _322  and  _323
REMARK  125  A    between atoms: _322  and  _325
REMARK  126  A    between atoms: _325  and  _326
REMARK  127  A    between atoms: _329  and  _331
REMARK  128  A    between atoms: _331  and  _332
REMARK  129  A    between atoms: _331  and  _334
REMARK  130  A    between atoms: _334  and  _335
REMARK  131  A    between atoms: _338  and  _340
REMARK  132  A    between atoms: _340  and  _341
REMARK  133  A    between atoms: _340  and  _343
REMARK  134  A    between atoms: _343  and  _344
REMARK  135  A    between atoms: _344  and  _345
REMARK  136  A    between atoms: _348  and  _350
REMARK  137  A    between atoms: _350  and  _351
REMARK  138  A    between atoms: _350  and  _353
REMARK  139  A    between atoms: _353  and  _354
REMARK  140  A    between atoms: _354  and  _355
REMARK  141  A    between atoms: _360  and  _362
REMARK  142  A    between atoms: _362  and  _363
REMARK  143  A    between atoms: _365  and  _367
REMARK  144  A    between atoms: _367  and  _368
REMARK  145  A    between atoms: _367  and  _370
REMARK  146  A    between atoms: _370  and  _371
REMARK  147  A    between atoms: _381  and  _383
REMARK  148  A    between atoms: _383  and  _384
REMARK  149  A    between atoms: _387  and  _389
REMARK  150  A    between atoms: _389  and  _390
REMARK  151  A    between atoms: _393  and  _395
REMARK  152  A    between atoms: _395  and  _396
REMARK  153  A    between atoms: _398  and  _400
REMARK  154  A    between atoms: _400  and  _401
REMARK  155  A    between atoms: _403  and  _405
REMARK  156  A    between atoms: _405  and  _406
REMARK  157  A    between atoms: _408  and  _410
REMARK  158  A    between atoms: _410  and  _411
REMARK  159  A    between atoms: _410  and  _413
REMARK  160  A    between atoms: _413  and  _414
REMARK  161  A    between atoms: _419  and  _421
REMARK  162  A    between atoms: _421  and  _422
REMARK  163  A    between atoms: _421  and  _424
REMARK  164  A    between atoms: _424  and  _425
REMARK  165  A    between atoms: _427  and  _429
REMARK  166  A    between atoms: _429  and  _430
REMARK  167  A    between atoms: _429  and  _432
REMARK  168  A    between atoms: _432  and  _433
REMARK  169  A    between atoms: _436  and  _438
REMARK  170  A    between atoms: _438  and  _439
REMARK  171  A    between atoms: _438  and  _441
REMARK  172  A    between atoms: _441  and  _442
REMARK  173  A    between atoms: _442  and  _443
REMARK  174  A    between atoms: _443  and  _444
REMARK  175  A    between atoms: _453  and  _455
REMARK  176  A    between atoms: _455  and  _456
REMARK  177  A    between atoms: _455  and  _458
REMARK  178  A    between atoms: _458  and  _459
REMARK  179  A    between atoms: _465  and  _467
REMARK  180  A    between atoms: _467  and  _468
REMARK  181  A    between atoms: _467  and  _470
REMARK  182  A    between atoms: _470  and  _471
REMARK  183  A    between atoms: _471  and  _472
REMARK  184  A    between atoms: _472  and  _473
REMARK  185  A    between atoms: _473  and  _474
REMARK  186  A    between atoms: _478  and  _480
REMARK  187  A    between atoms: _480  and  _481
REMARK  188  A    between atoms: _480  and  _483
REMARK  189  A    between atoms: _483  and  _484
REMARK  190  A    between atoms: _484  and  _485
REMARK  191  A    between atoms: _490  and  _492
REMARK  192  A    between atoms: _492  and  _493
REMARK  193  A    between atoms: _492  and  _495
REMARK  194  A    between atoms: _495  and  _496
REMARK  195  A    between atoms: _499  and  _501
REMARK  196  A    between atoms: _501  and  _502
REMARK  197  A    between atoms: _501  and  _504
REMARK  198  A    between atoms: _504  and  _505
REMARK  199  A    between atoms: _508  and  _510
REMARK  200  A    between atoms: _510  and  _511
REMARK  201  A    between atoms: _514  and  _516
REMARK  202  A    between atoms: _516  and  _517
REMARK  203  A    between atoms: _516  and  _519
REMARK  204  A    between atoms: _519  and  _520
REMARK  205  A    between atoms: _523  and  _525
REMARK  206  A    between atoms: _525  and  _526
REMARK  207  A    between atoms: _525  and  _528
REMARK  208  A    between atoms: _531  and  _533
REMARK  209  A    between atoms: _533  and  _534
REMARK  210  A    between atoms: _536  and  _538
REMARK  211  A    between atoms: _538  and  _539
REMARK  212  A    between atoms: _538  and  _541
REMARK  213  A    between atoms: _541  and  _542
REMARK  214  A    between atoms: _544  and  _546
REMARK  215  A    between atoms: _546  and  _547
REMARK  216  A    between atoms: _546  and  _549
REMARK  217  A    between atoms: _549  and  _550
REMARK  218  A    between atoms: _556  and  _558
REMARK  219  A    between atoms: _558  and  _559
REMARK  220  A    between atoms: _558  and  _561
REMARK  221  A    between atoms: _561  and  _562
REMARK  222  A    between atoms: _565  and  _567
REMARK  223  A    between atoms: _567  and  _568
REMARK  224  A    between atoms: _570  and  _572
REMARK  225  A    between atoms: _572  and  _573
REMARK  226  A    between atoms: _575  and  _577
REMARK  227  A    between atoms: _577  and  _578
REMARK  228  A    between atoms: _577  and  _580
REMARK  229  A    between atoms: _580  and  _581
REMARK  230  A    between atoms: _586  and  _587
REMARK  231  A    between atoms: _589  and  _591
REMARK  232  A    between atoms: _591  and  _592
REMARK  233  A    between atoms: _594  and  _596
REMARK  234  A    between atoms: _596  and  _597
REMARK  235  A    between atoms: _596  and  _599
REMARK  236  A    between atoms: _599  and  _600
REMARK  237  A    between atoms: _606  and  _608
REMARK  238  A    between atoms: _608  and  _609
REMARK  239  A    between atoms: _608  and  _611
REMARK  240  A    between atoms: _611  and  _612
REMARK  241  A    between atoms: _615  and  _617
REMARK  242  A    between atoms: _617  and  _618
REMARK  243  A    between atoms: _617  and  _620
REMARK  244  A    between atoms: _620  and  _621
REMARK  245  A    between atoms: _621  and  _622
REMARK  246  A    between atoms: _627  and  _629
REMARK  247  A    between atoms: _629  and  _630
REMARK  248  A    between atoms: _633  and  _635
REMARK  249  A    between atoms: _635  and  _636
REMARK  250  A    between atoms: _638  and  _640
REMARK  251  A    between atoms: _640  and  _641
REMARK  252  A    between atoms: _640  and  _643
REMARK  253  A    between atoms: _643  and  _644
REMARK  254  A    between atoms: _644  and  _645
REMARK  255  A    between atoms: _648  and  _650
REMARK  256  A    between atoms: _650  and  _651
REMARK  257  A    between atoms: _650  and  _653
REMARK  258  A    between atoms: _653  and  _654
REMARK  259  A    between atoms: _657  and  _659
REMARK  260  A    between atoms: _659  and  _660
REMARK  261  A    between atoms: _659  and  _662
REMARK  262  A    between atoms: _662  and  _663
REMARK  263  A    between atoms: _663  and  _664
REMARK  264  A    between atoms: _664  and  _665
REMARK  265  A    between atoms: _674  and  _676
REMARK  266  A    between atoms: _676  and  _677
REMARK  267  A    between atoms: _676  and  _679
REMARK  268  A    between atoms: _679  and  _680
REMARK  269  A    between atoms: _685  and  _686
REMARK  270  A    between atoms: _688  and  _690
REMARK  271  A    between atoms: _690  and  _691
REMARK  272  A    between atoms: _693  and  _695
REMARK  273  A    between atoms: _695  and  _696
REMARK  274  A    between atoms: _695  and  _698
REMARK  275  A    between atoms: _698  and  _699
REMARK  276  A    between atoms: _705  and  _707
REMARK  277  A    between atoms: _707  and  _708
REMARK  278  A    between atoms: _707  and  _710
REMARK  279  A    between atoms: _710  and  _711
REMARK  280  A    between atoms: _714  and  _716
REMARK  281  A    between atoms: _716  and  _717
REMARK  282  A    between atoms: _716  and  _719
REMARK  283  A    between atoms: _719  and  _720
REMARK  284  A    between atoms: _720  and  _721
REMARK  285  A    between atoms: _726  and  _728
REMARK  286  A    between atoms: _728  and  _729
REMARK  287  A    between atoms: _728  and  _731
REMARK  288  A    between atoms: _731  and  _732
REMARK  289  A    between atoms: _732  and  _733
REMARK  290  A    between atoms: _733  and  _734
REMARK  291  A    between atoms: _734  and  _735
REMARK                            x       y       z     vdW  Elec       q    Type
REMARK                         _______ _______ _______ _____ _____    ______ ____
ROOT
ATOM      1  O   HOH     1      28.199 -12.146 203.777  0.00  0.00    +0.000 OA
ENDROOT
TORSDOF 0
REMARK  Name = ../refined-set-2016/4qij/4qij_pocket.pdb
REMARK  291 active torsions:
REMARK  status: ('A' for Active; 'I' for Inactive)
REMARK    1  A    between atoms: _1  and  _3
REMARK    2  A    between atoms: _3  and  _4
REMARK    3  A    between atoms: _3  and  _6
REMARK    4  A    between atoms: _6  and  _7
REMARK    5  A    between atoms: _7  and  _8
REMARK    6  A    between atoms: _8  and  _9
REMARK    7  A    between atoms: _19  and  _20
REMARK    8  A    between atoms: _25  and  _27
REMARK    9  A    between atoms: _27  and  _28
REMARK   10  A    between atoms: _27  and  _30
REMARK   11  A    between atoms: _30  and  _31
REMARK   12  A    between atoms: _31  and  _32
REMARK   13  A    between atoms: _35  and  _37
REMARK   14  A    between atoms: _37  and  _38
REMARK   15  A    between atoms: _37  and  _40
REMARK   16  A    between atoms: _43  and  _45
REMARK   17  A    between atoms: _45  and  _46
REMARK   18  A    between atoms: _45  and  _48
REMARK   19  A    between atoms: _48  and  _49
REMARK   20  A    between atoms: _49  and  _50
REMARK   21  A    between atoms: _50  and  _51
REMARK   22  A    between atoms: _60  and  _62
REMARK   23  A    between atoms: _62  and  _63
REMARK   24  A    between atoms: _62  and  _65
REMARK   25  A    between atoms: _65  and  _66
REMARK   26  A    between atoms: _71  and  _73
REMARK   27  A    between atoms: _73  and  _74
REMARK   28  A    between atoms: _77  and  _79
REMARK   29  A    between atoms: _79  and  _80
REMARK   30  A    between atoms: _79  and  _82
REMARK   31  A    between atoms: _82  and  _83
REMARK   32  A    between atoms: _89  and  _91
REMARK   33  A    between atoms: _91  and  _92
REMARK   34  A    between atoms: _91  and  _94
REMARK   35  A    between atoms: _97  and  _99
REMARK   36  A    between atoms: _99  and  _100
REMARK   37  A    between atoms: _99  and  _102
REMARK   38  A    between atoms: _102  and  _103
REMARK   39  A    between atoms: _105  and  _107
REMARK   40  A    between atoms: _107  and  _108
REMARK   41  A    between atoms: _107  and  _110
REMARK   42  A    between atoms: _110  and  _111
REMARK   43  A    between atoms: _111  and  _112
REMARK   44  A    between atoms: _112  and  _113
REMARK   45  A    between atoms: _113  and  _114
REMARK   46  A    between atoms: _118  and  _120
REMARK   47  A    between atoms: _120  and  _121
REMARK   48  A    between atoms: _120  and  _123
REMARK   49  A    between atoms: _123  and  _124
REMARK   50  A    between atoms: _127  and  _129
REMARK   51  A    between atoms: _129  and  _130
REMARK   52  A    between atoms: _132  and  _134
REMARK   53  A    between atoms: _134  and  _135
REMARK   54  A    between atoms: _134  and  _137
REMARK   55  A    between atoms: _137  and  _138
REMARK   56  A    between atoms: _148  and  _150
REMARK   57  A    between atoms: _150  and  _151
REMARK   58  A    between atoms: _154  and  _156
REMARK   59  A    between atoms: _156  and  _157
REMARK   60  A    between atoms: _156  and  _159
REMARK   61  A    between atoms: _159  and  _160
REMARK   62  A    between atoms: _166  and  _168
REMARK   63  A    between atoms: _168  and  _169
REMARK   64  A    between atoms: _168  and  _171
REMARK   65  A    between atoms: _173  and  _175
REMARK   66  A    between atoms: _175  and  _176
REMARK   67  A    between atoms: _175  and  _178
REMARK   68  A    between atoms: _178  and  _179
REMARK   69  A    between atoms: _181  and  _183
REMARK   70  A    between atoms: _183  and  _184
REMARK   71  A    between atoms: _186  and  _188
REMARK   72  A    between atoms: _188  and  _189
REMARK   73  A    between atoms: _191  and  _193
REMARK   74  A    between atoms: _193  and  _194
REMARK   75  A    between atoms: _193  and  _196
REMARK   76  A    between atoms: _196  and  _197
REMARK   77  A    between atoms: _200  and  _202
REMARK   78  A    between atoms: _202  and  _203
REMARK   79  A    between atoms: _202  and  _205
REMARK   80  A    between atoms: _205  and  _206
REMARK   81  A    between atoms: _206  and  _207
REMARK   82  A    between atoms: _212  and  _214
REMARK   83  A    between atoms: _214  and  _215
REMARK   84  A    between atoms: _214  and  _217
REMARK   85  A    between atoms: _217  and  _218
REMARK   86  A    between atoms: _218  and  _219
REMARK   87  A    between atoms: _219  and  _220
REMARK   88  A    between atoms: _229  and  _231
REMARK   89  A    between atoms: _231  and  _232
REMARK   90  A    between atoms: _231  and  _234
REMARK   91  A    between atoms: _234  and  _235
REMARK   92  A    between atoms: _238  and  _240
REMARK   93  A    between atoms: _240  and  _241
REMARK   94  A    between atoms: _240  and  _243
REMARK   95  A    between atoms: _243  and  _244
REMARK   96  A    between atoms: _244  and  _245
REMARK   97  A    between atoms: _245  and  _246
REMARK   98  A    between atoms: _255  and  _257
REMARK   99  A    between atoms: _257  and  _258
REMARK  100  A    between atoms: _260  and  _262
REMARK  101  A    between atoms: _262  and  _263
REMARK  102  A    between atoms: _262  and  _265
REMARK  103  A    between atoms: _265  and  _266
REMARK  104  A    between atoms: _271  and  _272
REMARK  105  A    between atoms: _274  and  _276
REMARK  106  A    between atoms: _276  and  _277
REMARK  107  A    between atoms: _276  and  _279
REMARK  108  A    between atoms: _279  and  _280
REMARK  109  A    between atoms: _283  and  _285
REMARK  110  A    between atoms: _285  and  _286
REMARK  111  A    between atoms: _285  and  _288
REMARK  112  A    between atoms: _288  and  _289
REMARK  113  A    between atoms: _289  and  _290
REMARK  114  A    between atoms: _290  and  _291
REMARK  115  A    between atoms: _300  and  _302
REMARK  116  A    between atoms: _302  and  _303
REMARK  117  A    between atoms: _302  and  _305
REMARK  118  A    between atoms: _305  and  _306
REMARK  119  A    between atoms: _309  and  _311
REMARK  120  A    between atoms: _311  and  _312
REMARK  121  A    between atoms: _311  and  _314
REMARK  122  A    between atoms: _314  and  _315
REMARK  123  A    between atoms: _320  and  _322
REMARK  124  A    between atoms: _322  and  _323
REMARK  125  A    between atoms: _322  and  _325
REMARK  126  A    between atoms: _325  and  _326
REMARK  127  A    between atoms: _329  and  _331
REMARK  128  A    between atoms: _331  and  _332
REMARK  129  A    between atoms: _331  and  _334
REMARK  130  A    between atoms: _334  and  _335
REMARK  131  A    between atoms: _338  and  _340
REMARK  132  A    between atoms: _340  and  _341
REMARK  133  A    between atoms: _340  and  _343
REMARK  134  A    between atoms: _343  and  _344
REMARK  135  A    between atoms: _344  and  _345
REMARK  136  A    between atoms: _348  and  _350
REMARK  137  A    between atoms: _350  and  _351
REMARK  138  A    between atoms: _350  and  _353
REMARK  139  A    between atoms: _353  and  _354
REMARK  140  A    between atoms: _354  and  _355
REMARK  141  A    between atoms: _360  and  _362
REMARK  142  A    between atoms: _362  and  _363
REMARK  143  A    between atoms: _365  and  _367
REMARK  144  A    between atoms: _367  and  _368
REMARK  145  A    between atoms: _367  and  _370
REMARK  146  A    between atoms: _370  and  _371
REMARK  147  A    between atoms: _381  and  _383
REMARK  148  A    between atoms: _383  and  _384
REMARK  149  A    between atoms: _387  and  _389
REMARK  150  A    between atoms: _389  and  _390
REMARK  151  A    between atoms: _393  and  _395
REMARK  152  A    between atoms: _395  and  _396
REMARK  153  A    between atoms: _398  and  _400
REMARK  154  A    between atoms: _400  and  _401
REMARK  155  A    between atoms: _403  and  _405
REMARK  156  A    between atoms: _405  and  _406
REMARK  157  A    between atoms: _408  and  _410
REMARK  158  A    between atoms: _410  and  _411
REMARK  159  A    between atoms: _410  and  _413
REMARK  160  A    between atoms: _413  and  _414
REMARK  161  A    between atoms: _419  and  _421
REMARK  162  A    between atoms: _421  and  _422
REMARK  163  A    between atoms: _421  and  _424
REMARK  164  A    between atoms: _424  and  _425
REMARK  165  A    between atoms: _427  and  _429
REMARK  166  A    between atoms: _429  and  _430
REMARK  167  A    between atoms: _429  and  _432
REMARK  168  A    between atoms: _432  and  _433
REMARK  169  A    between atoms: _436  and  _438
REMARK  170  A    between atoms: _438  and  _439
REMARK  171  A    between atoms: _438  and  _441
REMARK  172  A    between atoms: _441  and  _442
REMARK  173  A    between atoms: _442  and  _443
REMARK  174  A    between atoms: _443  and  _444
REMARK  175  A    between atoms: _453  and  _455
REMARK  176  A    between atoms: _455  and  _456
REMARK  177  A    between atoms: _455  and  _458
REMARK  178  A    between atoms: _458  and  _459
REMARK  179  A    between atoms: _465  and  _467
REMARK  180  A    between atoms: _467  and  _468
REMARK  181  A    between atoms: _467  and  _470
REMARK  182  A    between atoms: _470  and  _471
REMARK  183  A    between atoms: _471  and  _472
REMARK  184  A    between atoms: _472  and  _473
REMARK  185  A    between atoms: _473  and  _474
REMARK  186  A    between atoms: _478  and  _480
REMARK  187  A    between atoms: _480  and  _481
REMARK  188  A    between atoms: _480  and  _483
REMARK  189  A    between atoms: _483  and  _484
REMARK  190  A    between atoms: _484  and  _485
REMARK  191  A    between atoms: _490  and  _492
REMARK  192  A    between atoms: _492  and  _493
REMARK  193  A    between atoms: _492  and  _495
REMARK  194  A    between atoms: _495  and  _496
REMARK  195  A    between atoms: _499  and  _501
REMARK  196  A    between atoms: _501  and  _502
REMARK  197  A    between atoms: _501  and  _504
REMARK  198  A    between atoms: _504  and  _505
REMARK  199  A    between atoms: _508  and  _510
REMARK  200  A    between atoms: _510  and  _511
REMARK  201  A    between atoms: _514  and  _516
REMARK  202  A    between atoms: _516  and  _517
REMARK  203  A    between atoms: _516  and  _519
REMARK  204  A    between atoms: _519  and  _520
REMARK  205  A    between atoms: _523  and  _525
REMARK  206  A    between atoms: _525  and  _526
REMARK  207  A    between atoms: _525  and  _528
REMARK  208  A    between atoms: _531  and  _533
REMARK  209  A    between atoms: _533  and  _534
REMARK  210  A    between atoms: _536  and  _538
REMARK  211  A    between atoms: _538  and  _539
REMARK  212  A    between atoms: _538  and  _541
REMARK  213  A    between atoms: _541  and  _542
REMARK  214  A    between atoms: _544  and  _546
REMARK  215  A    between atoms: _546  and  _547
REMARK  216  A    between atoms: _546  and  _549
REMARK  217  A    between atoms: _549  and  _550
REMARK  218  A    between atoms: _556  and  _558
REMARK  219  A    between atoms: _558  and  _559
REMARK  220  A    between atoms: _558  and  _561
REMARK  221  A    between atoms: _561  and  _562
REMARK  222  A    between atoms: _565  and  _567
REMARK  223  A    between atoms: _567  and  _568
REMARK  224  A    between atoms: _570  and  _572
REMARK  225  A    between atoms: _572  and  _573
REMARK  226  A    between atoms: _575  and  _577
REMARK  227  A    between atoms: _577  and  _578
REMARK  228  A    between atoms: _577  and  _580
REMARK  229  A    between atoms: _580  and  _581
REMARK  230  A    between atoms: _586  and  _587
REMARK  231  A    between atoms: _589  and  _591
REMARK  232  A    between atoms: _591  and  _592
REMARK  233  A    between atoms: _594  and  _596
REMARK  234  A    between atoms: _596  and  _597
REMARK  235  A    between atoms: _596  and  _599
REMARK  236  A    between atoms: _599  and  _600
REMARK  237  A    between atoms: _606  and  _608
REMARK  238  A    between atoms: _608  and  _609
REMARK  239  A    between atoms: _608  and  _611
REMARK  240  A    between atoms: _611  and  _612
REMARK  241  A    between atoms: _615  and  _617
REMARK  242  A    between atoms: _617  and  _618
REMARK  243  A    between atoms: _617  and  _620
REMARK  244  A    between atoms: _620  and  _621
REMARK  245  A    between atoms: _621  and  _622
REMARK  246  A    between atoms: _627  and  _629
REMARK  247  A    between atoms: _629  and  _630
REMARK  248  A    between atoms: _633  and  _635
REMARK  249  A    between atoms: _635  and  _636
REMARK  250  A    between atoms: _638  and  _640
REMARK  251  A    between atoms: _640  and  _641
REMARK  252  A    between atoms: _640  and  _643
REMARK  253  A    between atoms: _643  and  _644
REMARK  254  A    between atoms: _644  and  _645
REMARK  255  A    between atoms: _648  and  _650
REMARK  256  A    between atoms: _650  and  _651
REMARK  257  A    between atoms: _650  and  _653
REMARK  258  A    between atoms: _653  and  _654
REMARK  259  A    between atoms: _657  and  _659
REMARK  260  A    between atoms: _659  and  _660
REMARK  261  A    between atoms: _659  and  _662
REMARK  262  A    between atoms: _662  and  _663
REMARK  263  A    between atoms: _663  and  _664
REMARK  264  A    between atoms: _664  and  _665
REMARK  265  A    between atoms: _674  and  _676
REMARK  266  A    between atoms: _676  and  _677
REMARK  267  A    between atoms: _676  and  _679
REMARK  268  A    between atoms: _679  and  _680
REMARK  269  A    between atoms: _685  and  _686
REMARK  270  A    between atoms: _688  and  _690
REMARK  271  A    between atoms: _690  and  _691
REMARK  272  A    between atoms: _693  and  _695
REMARK  273  A    between atoms: _695  and  _696
REMARK  274  A    between atoms: _695  and  _698
REMARK  275  A    between atoms: _698  and  _699
REMARK  276  A    between atoms: _705  and  _707
REMARK  277  A    between atoms: _707  and  _708
REMARK  278  A    between atoms: _707  and  _710
REMARK  279  A    between atoms: _710  and  _711
REMARK  280  A    between atoms: _714  and  _716
REMARK  281  A    between atoms: _716  and  _717
REMARK  282  A    between atoms: _716  and  _719
REMARK  283  A    between atoms: _719  and  _720
REMARK  284  A    between atoms: _720  and  _721
REMARK  285  A    between atoms: _726  and  _728
REMARK  286  A    between atoms: _728  and  _729
REMARK  287  A    between atoms: _728  and  _731
REMARK  288  A    between atoms: _731  and  _732
REMARK  289  A    between atoms: _732  and  _733
REMARK  290  A    between atoms: _733  and  _734
REMARK  291  A    between atoms: _734  and  _735
REMARK                            x       y       z     vdW  Elec       q    Type
REMARK                         _______ _______ _______ _____ _____    ______ ____
ROOT
ATOM      1  O   HOH     1      35.444 -10.508 183.613  0.00  0.00    +0.000 OA
ENDROOT
TORSDOF 0
REMARK  Name = ../refined-set-2016/4qij/4qij_pocket.pdb
REMARK  291 active torsions:
REMARK  status: ('A' for Active; 'I' for Inactive)
REMARK    1  A    between atoms: _1  and  _3
REMARK    2  A    between atoms: _3  and  _4
REMARK    3  A    between atoms: _3  and  _6
REMARK    4  A    between atoms: _6  and  _7
REMARK    5  A    between atoms: _7  and  _8
REMARK    6  A    between atoms: _8  and  _9
REMARK    7  A    between atoms: _19  and  _20
REMARK    8  A    between atoms: _25  and  _27
REMARK    9  A    between atoms: _27  and  _28
REMARK   10  A    between atoms: _27  and  _30
REMARK   11  A    between atoms: _30  and  _31
REMARK   12  A    between atoms: _31  and  _32
REMARK   13  A    between atoms: _35  and  _37
REMARK   14  A    between atoms: _37  and  _38
REMARK   15  A    between atoms: _37  and  _40
REMARK   16  A    between atoms: _43  and  _45
REMARK   17  A    between atoms: _45  and  _46
REMARK   18  A    between atoms: _45  and  _48
REMARK   19  A    between atoms: _48  and  _49
REMARK   20  A    between atoms: _49  and  _50
REMARK   21  A    between atoms: _50  and  _51
REMARK   22  A    between atoms: _60  and  _62
REMARK   23  A    between atoms: _62  and  _63
REMARK   24  A    between atoms: _62  and  _65
REMARK   25  A    between atoms: _65  and  _66
REMARK   26  A    between atoms: _71  and  _73
REMARK   27  A    between atoms: _73  and  _74
REMARK   28  A    between atoms: _77  and  _79
REMARK   29  A    between atoms: _79  and  _80
REMARK   30  A    between atoms: _79  and  _82
REMARK   31  A    between atoms: _82  and  _83
REMARK   32  A    between atoms: _89  and  _91
REMARK   33  A    between atoms: _91  and  _92
REMARK   34  A    between atoms: _91  and  _94
REMARK   35  A    between atoms: _97  and  _99
REMARK   36  A    between atoms: _99  and  _100
REMARK   37  A    between atoms: _99  and  _102
REMARK   38  A    between atoms: _102  and  _103
REMARK   39  A    between atoms: _105  and  _107
REMARK   40  A    between atoms: _107  and  _108
REMARK   41  A    between atoms: _107  and  _110
REMARK   42  A    between atoms: _110  and  _111
REMARK   43  A    between atoms: _111  and  _112
REMARK   44  A    between atoms: _112  and  _113
REMARK   45  A    between atoms: _113  and  _114
REMARK   46  A    between atoms: _118  and  _120
REMARK   47  A    between atoms: _120  and  _121
REMARK   48  A    between atoms: _120  and  _123
REMARK   49  A    between atoms: _123  and  _124
REMARK   50  A    between atoms: _127  and  _129
REMARK   51  A    between atoms: _129  and  _130
REMARK   52  A    between atoms: _132  and  _134
REMARK   53  A    between atoms: _134  and  _135
REMARK   54  A    between atoms: _134  and  _137
REMARK   55  A    between atoms: _137  and  _138
REMARK   56  A    between atoms: _148  and  _150
REMARK   57  A    between atoms: _150  and  _151
REMARK   58  A    between atoms: _154  and  _156
REMARK   59  A    between atoms: _156  and  _157
REMARK   60  A    between atoms: _156  and  _159
REMARK   61  A    between atoms: _159  and  _160
REMARK   62  A    between atoms: _166  and  _168
REMARK   63  A    between atoms: _168  and  _169
REMARK   64  A    between atoms: _168  and  _171
REMARK   65  A    between atoms: _173  and  _175
REMARK   66  A    between atoms: _175  and  _176
REMARK   67  A    between atoms: _175  and  _178
REMARK   68  A    between atoms: _178  and  _179
REMARK   69  A    between atoms: _181  and  _183
REMARK   70  A    between atoms: _183  and  _184
REMARK   71  A    between atoms: _186  and  _188
REMARK   72  A    between atoms: _188  and  _189
REMARK   73  A    between atoms: _191  and  _193
REMARK   74  A    between atoms: _193  and  _194
REMARK   75  A    between atoms: _193  and  _196
REMARK   76  A    between atoms: _196  and  _197
REMARK   77  A    between atoms: _200  and  _202
REMARK   78  A    between atoms: _202  and  _203
REMARK   79  A    between atoms: _202  and  _205
REMARK   80  A    between atoms: _205  and  _206
REMARK   81  A    between atoms: _206  and  _207
REMARK   82  A    between atoms: _212  and  _214
REMARK   83  A    between atoms: _214  and  _215
REMARK   84  A    between atoms: _214  and  _217
REMARK   85  A    between atoms: _217  and  _218
REMARK   86  A    between atoms: _218  and  _219
REMARK   87  A    between atoms: _219  and  _220
REMARK   88  A    between atoms: _229  and  _231
REMARK   89  A    between atoms: _231  and  _232
REMARK   90  A    between atoms: _231  and  _234
REMARK   91  A    between atoms: _234  and  _235
REMARK   92  A    between atoms: _238  and  _240
REMARK   93  A    between atoms: _240  and  _241
REMARK   94  A    between atoms: _240  and  _243
REMARK   95  A    between atoms: _243  and  _244
REMARK   96  A    between atoms: _244  and  _245
REMARK   97  A    between atoms: _245  and  _246
REMARK   98  A    between atoms: _255  and  _257
REMARK   99  A    between atoms: _257  and  _258
REMARK  100  A    between atoms: _260  and  _262
REMARK  101  A    between atoms: _262  and  _263
REMARK  102  A    between atoms: _262  and  _265
REMARK  103  A    between atoms: _265  and  _266
REMARK  104  A    between atoms: _271  and  _272
REMARK  105  A    between atoms: _274  and  _276
REMARK  106  A    between atoms: _276  and  _277
REMARK  107  A    between atoms: _276  and  _279
REMARK  108  A    between atoms: _279  and  _280
REMARK  109  A    between atoms: _283  and  _285
REMARK  110  A    between atoms: _285  and  _286
REMARK  111  A    between atoms: _285  and  _288
REMARK  112  A    between atoms: _288  and  _289
REMARK  113  A    between atoms: _289  and  _290
REMARK  114  A    between atoms: _290  and  _291
REMARK  115  A    between atoms: _300  and  _302
REMARK  116  A    between atoms: _302  and  _303
REMARK  117  A    between atoms: _302  and  _305
REMARK  118  A    between atoms: _305  and  _306
REMARK  119  A    between atoms: _309  and  _311
REMARK  120  A    between atoms: _311  and  _312
REMARK  121  A    between atoms: _311  and  _314
REMARK  122  A    between atoms: _314  and  _315
REMARK  123  A    between atoms: _320  and  _322
REMARK  124  A    between atoms: _322  and  _323
REMARK  125  A    between atoms: _322  and  _325
REMARK  126  A    between atoms: _325  and  _326
REMARK  127  A    between atoms: _329  and  _331
REMARK  128  A    between atoms: _331  and  _332
REMARK  129  A    between atoms: _331  and  _334
REMARK  130  A    between atoms: _334  and  _335
REMARK  131  A    between atoms: _338  and  _340
REMARK  132  A    between atoms: _340  and  _341
REMARK  133  A    between atoms: _340  and  _343
REMARK  134  A    between atoms: _343  and  _344
REMARK  135  A    between atoms: _344  and  _345
REMARK  136  A    between atoms: _348  and  _350
REMARK  137  A    between atoms: _350  and  _351
REMARK  138  A    between atoms: _350  and  _353
REMARK  139  A    between atoms: _353  and  _354
REMARK  140  A    between atoms: _354  and  _355
REMARK  141  A    between atoms: _360  and  _362
REMARK  142  A    between atoms: _362  and  _363
REMARK  143  A    between atoms: _365  and  _367
REMARK  144  A    between atoms: _367  and  _368
REMARK  145  A    between atoms: _367  and  _370
REMARK  146  A    between atoms: _370  and  _371
REMARK  147  A    between atoms: _381  and  _383
REMARK  148  A    between atoms: _383  and  _384
REMARK  149  A    between atoms: _387  and  _389
REMARK  150  A    between atoms: _389  and  _390
REMARK  151  A    between atoms: _393  and  _395
REMARK  152  A    between atoms: _395  and  _396
REMARK  153  A    between atoms: _398  and  _400
REMARK  154  A    between atoms: _400  and  _401
REMARK  155  A    between atoms: _403  and  _405
REMARK  156  A    between atoms: _405  and  _406
REMARK  157  A    between atoms: _408  and  _410
REMARK  158  A    between atoms: _410  and  _411
REMARK  159  A    between atoms: _410  and  _413
REMARK  160  A    between atoms: _413  and  _414
REMARK  161  A    between atoms: _419  and  _421
REMARK  162  A    between atoms: _421  and  _422
REMARK  163  A    between atoms: _421  and  _424
REMARK  164  A    between atoms: _424  and  _425
REMARK  165  A    between atoms: _427  and  _429
REMARK  166  A    between atoms: _429  and  _430
REMARK  167  A    between atoms: _429  and  _432
REMARK  168  A    between atoms: _432  and  _433
REMARK  169  A    between atoms: _436  and  _438
REMARK  170  A    between atoms: _438  and  _439
REMARK  171  A    between atoms: _438  and  _441
REMARK  172  A    between atoms: _441  and  _442
REMARK  173  A    between atoms: _442  and  _443
REMARK  174  A    between atoms: _443  and  _444
REMARK  175  A    between atoms: _453  and  _455
REMARK  176  A    between atoms: _455  and  _456
REMARK  177  A    between atoms: _455  and  _458
REMARK  178  A    between atoms: _458  and  _459
REMARK  179  A    between atoms: _465  and  _467
REMARK  180  A    between atoms: _467  and  _468
REMARK  181  A    between atoms: _467  and  _470
REMARK  182  A    between atoms: _470  and  _471
REMARK  183  A    between atoms: _471  and  _472
REMARK  184  A    between atoms: _472  and  _473
REMARK  185  A    between atoms: _473  and  _474
REMARK  186  A    between atoms: _478  and  _480
REMARK  187  A    between atoms: _480  and  _481
REMARK  188  A    between atoms: _480  and  _483
REMARK  189  A    between atoms: _483  and  _484
REMARK  190  A    between atoms: _484  and  _485
REMARK  191  A    between atoms: _490  and  _492
REMARK  192  A    between atoms: _492  and  _493
REMARK  193  A    between atoms: _492  and  _495
REMARK  194  A    between atoms: _495  and  _496
REMARK  195  A    between atoms: _499  and  _501
REMARK  196  A    between atoms: _501  and  _502
REMARK  197  A    between atoms: _501  and  _504
REMARK  198  A    between atoms: _504  and  _505
REMARK  199  A    between atoms: _508  and  _510
REMARK  200  A    between atoms: _510  and  _511
REMARK  201  A    between atoms: _514  and  _516
REMARK  202  A    between atoms: _516  and  _517
REMARK  203  A    between atoms: _516  and  _519
REMARK  204  A    between atoms: _519  and  _520
REMARK  205  A    between atoms: _523  and  _525
REMARK  206  A    between atoms: _525  and  _526
REMARK  207  A    between atoms: _525  and  _528
REMARK  208  A    between atoms: _531  and  _533
REMARK  209  A    between atoms: _533  and  _534
REMARK  210  A    between atoms: _536  and  _538
REMARK  211  A    between atoms: _538  and  _539
REMARK  212  A    between atoms: _538  and  _541
REMARK  213  A    between atoms: _541  and  _542
REMARK  214  A    between atoms: _544  and  _546
REMARK  215  A    between atoms: _546  and  _547
REMARK  216  A    between atoms: _546  and  _549
REMARK  217  A    between atoms: _549  and  _550
REMARK  218  A    between atoms: _556  and  _558
REMARK  219  A    between atoms: _558  and  _559
REMARK  220  A    between atoms: _558  and  _561
REMARK  221  A    between atoms: _561  and  _562
REMARK  222  A    between atoms: _565  and  _567
REMARK  223  A    between atoms: _567  and  _568
REMARK  224  A    between atoms: _570  and  _572
REMARK  225  A    between atoms: _572  and  _573
REMARK  226  A    between atoms: _575  and  _577
REMARK  227  A    between atoms: _577  and  _578
REMARK  228  A    between atoms: _577  and  _580
REMARK  229  A    between atoms: _580  and  _581
REMARK  230  A    between atoms: _586  and  _587
REMARK  231  A    between atoms: _589  and  _591
REMARK  232  A    between atoms: _591  and  _592
REMARK  233  A    between atoms: _594  and  _596
REMARK  234  A    between atoms: _596  and  _597
REMARK  235  A    between atoms: _596  and  _599
REMARK  236  A    between atoms: _599  and  _600
REMARK  237  A    between atoms: _606  and  _608
REMARK  238  A    between atoms: _608  and  _609
REMARK  239  A    between atoms: _608  and  _611
REMARK  240  A    between atoms: _611  and  _612
REMARK  241  A    between atoms: _615  and  _617
REMARK  242  A    between atoms: _617  and  _618
REMARK  243  A    between atoms: _617  and  _620
REMARK  244  A    between atoms: _620  and  _621
REMARK  245  A    between atoms: _621  and  _622
REMARK  246  A    between atoms: _627  and  _629
REMARK  247  A    between atoms: _629  and  _630
REMARK  248  A    between atoms: _633  and  _635
REMARK  249  A    between atoms: _635  and  _636
REMARK  250  A    between atoms: _638  and  _640
REMARK  251  A    between atoms: _640  and  _641
REMARK  252  A    between atoms: _640  and  _643
REMARK  253  A    between atoms: _643  and  _644
REMARK  254  A    between atoms: _644  and  _645
REMARK  255  A    between atoms: _648  and  _650
REMARK  256  A    between atoms: _650  and  _651
REMARK  257  A    between atoms: _650  and  _653
REMARK  258  A    between atoms: _653  and  _654
REMARK  259  A    between atoms: _657  and  _659
REMARK  260  A    between atoms: _659  and  _660
REMARK  261  A    between atoms: _659  and  _662
REMARK  262  A    between atoms: _662  and  _663
REMARK  263  A    between atoms: _663  and  _664
REMARK  264  A    between atoms: _664  and  _665
REMARK  265  A    between atoms: _674  and  _676
REMARK  266  A    between atoms: _676  and  _677
REMARK  267  A    between atoms: _676  and  _679
REMARK  268  A    between atoms: _679  and  _680
REMARK  269  A    between atoms: _685  and  _686
REMARK  270  A    between atoms: _688  and  _690
REMARK  271  A    between atoms: _690  and  _691
REMARK  272  A    between atoms: _693  and  _695
REMARK  273  A    between atoms: _695  and  _696
REMARK  274  A    between atoms: _695  and  _698
REMARK  275  A    between atoms: _698  and  _699
REMARK  276  A    between atoms: _705  and  _707
REMARK  277  A    between atoms: _707  and  _708
REMARK  278  A    between atoms: _707  and  _710
REMARK  279  A    between atoms: _710  and  _711
REMARK  280  A    between atoms: _714  and  _716
REMARK  281  A    between atoms: _716  and  _717
REMARK  282  A    between atoms: _716  and  _719
REMARK  283  A    between atoms: _719  and  _720
REMARK  284  A    between atoms: _720  and  _721
REMARK  285  A    between atoms: _726  and  _728
REMARK  286  A    between atoms: _728  and  _729
REMARK  287  A    between atoms: _728  and  _731
REMARK  288  A    between atoms: _731  and  _732
REMARK  289  A    between atoms: _732  and  _733
REMARK  290  A    between atoms: _733  and  _734
REMARK  291  A    between atoms: _734  and  _735
REMARK                            x       y       z     vdW  Elec       q    Type
REMARK                         _______ _______ _______ _____ _____    ______ ____
ROOT
ATOM      1  O   HOH     1      35.048  -7.969 184.881  0.00  0.00    +0.000 OA
ENDROOT
TORSDOF 0
REMARK  Name = ../refined-set-2016/4qij/4qij_pocket.pdb
REMARK  291 active torsions:
REMARK  status: ('A' for Active; 'I' for Inactive)
REMARK    1  A    between atoms: _1  and  _3
REMARK    2  A    between atoms: _3  and  _4
REMARK    3  A    between atoms: _3  and  _6
REMARK    4  A    between atoms: _6  and  _7
REMARK    5  A    between atoms: _7  and  _8
REMARK    6  A    between atoms: _8  and  _9
REMARK    7  A    between atoms: _19  and  _20
REMARK    8  A    between atoms: _25  and  _27
REMARK    9  A    between atoms: _27  and  _28
REMARK   10  A    between atoms: _27  and  _30
REMARK   11  A    between atoms: _30  and  _31
REMARK   12  A    between atoms: _31  and  _32
REMARK   13  A    between atoms: _35  and  _37
REMARK   14  A    between atoms: _37  and  _38
REMARK   15  A    between atoms: _37  and  _40
REMARK   16  A    between atoms: _43  and  _45
REMARK   17  A    between atoms: _45  and  _46
REMARK   18  A    between atoms: _45  and  _48
REMARK   19  A    between atoms: _48  and  _49
REMARK   20  A    between atoms: _49  and  _50
REMARK   21  A    between atoms: _50  and  _51
REMARK   22  A    between atoms: _60  and  _62
REMARK   23  A    between atoms: _62  and  _63
REMARK   24  A    between atoms: _62  and  _65
REMARK   25  A    between atoms: _65  and  _66
REMARK   26  A    between atoms: _71  and  _73
REMARK   27  A    between atoms: _73  and  _74
REMARK   28  A    between atoms: _77  and  _79
REMARK   29  A    between atoms: _79  and  _80
REMARK   30  A    between atoms: _79  and  _82
REMARK   31  A    between atoms: _82  and  _83
REMARK   32  A    between atoms: _89  and  _91
REMARK   33  A    between atoms: _91  and  _92
REMARK   34  A    between atoms: _91  and  _94
REMARK   35  A    between atoms: _97  and  _99
REMARK   36  A    between atoms: _99  and  _100
REMARK   37  A    between atoms: _99  and  _102
REMARK   38  A    between atoms: _102  and  _103
REMARK   39  A    between atoms: _105  and  _107
REMARK   40  A    between atoms: _107  and  _108
REMARK   41  A    between atoms: _107  and  _110
REMARK   42  A    between atoms: _110  and  _111
REMARK   43  A    between atoms: _111  and  _112
REMARK   44  A    between atoms: _112  and  _113
REMARK   45  A    between atoms: _113  and  _114
REMARK   46  A    between atoms: _118  and  _120
REMARK   47  A    between atoms: _120  and  _121
REMARK   48  A    between atoms: _120  and  _123
REMARK   49  A    between atoms: _123  and  _124
REMARK   50  A    between atoms: _127  and  _129
REMARK   51  A    between atoms: _129  and  _130
REMARK   52  A    between atoms: _132  and  _134
REMARK   53  A    between atoms: _134  and  _135
REMARK   54  A    between atoms: _134  and  _137
REMARK   55  A    between atoms: _137  and  _138
REMARK   56  A    between atoms: _148  and  _150
REMARK   57  A    between atoms: _150  and  _151
REMARK   58  A    between atoms: _154  and  _156
REMARK   59  A    between atoms: _156  and  _157
REMARK   60  A    between atoms: _156  and  _159
REMARK   61  A    between atoms: _159  and  _160
REMARK   62  A    between atoms: _166  and  _168
REMARK   63  A    between atoms: _168  and  _169
REMARK   64  A    between atoms: _168  and  _171
REMARK   65  A    between atoms: _173  and  _175
REMARK   66  A    between atoms: _175  and  _176
REMARK   67  A    between atoms: _175  and  _178
REMARK   68  A    between atoms: _178  and  _179
REMARK   69  A    between atoms: _181  and  _183
REMARK   70  A    between atoms: _183  and  _184
REMARK   71  A    between atoms: _186  and  _188
REMARK   72  A    between atoms: _188  and  _189
REMARK   73  A    between atoms: _191  and  _193
REMARK   74  A    between atoms: _193  and  _194
REMARK   75  A    between atoms: _193  and  _196
REMARK   76  A    between atoms: _196  and  _197
REMARK   77  A    between atoms: _200  and  _202
REMARK   78  A    between atoms: _202  and  _203
REMARK   79  A    between atoms: _202  and  _205
REMARK   80  A    between atoms: _205  and  _206
REMARK   81  A    between atoms: _206  and  _207
REMARK   82  A    between atoms: _212  and  _214
REMARK   83  A    between atoms: _214  and  _215
REMARK   84  A    between atoms: _214  and  _217
REMARK   85  A    between atoms: _217  and  _218
REMARK   86  A    between atoms: _218  and  _219
REMARK   87  A    between atoms: _219  and  _220
REMARK   88  A    between atoms: _229  and  _231
REMARK   89  A    between atoms: _231  and  _232
REMARK   90  A    between atoms: _231  and  _234
REMARK   91  A    between atoms: _234  and  _235
REMARK   92  A    between atoms: _238  and  _240
REMARK   93  A    between atoms: _240  and  _241
REMARK   94  A    between atoms: _240  and  _243
REMARK   95  A    between atoms: _243  and  _244
REMARK   96  A    between atoms: _244  and  _245
REMARK   97  A    between atoms: _245  and  _246
REMARK   98  A    between atoms: _255  and  _257
REMARK   99  A    between atoms: _257  and  _258
REMARK  100  A    between atoms: _260  and  _262
REMARK  101  A    between atoms: _262  and  _263
REMARK  102  A    between atoms: _262  and  _265
REMARK  103  A    between atoms: _265  and  _266
REMARK  104  A    between atoms: _271  and  _272
REMARK  105  A    between atoms: _274  and  _276
REMARK  106  A    between atoms: _276  and  _277
REMARK  107  A    between atoms: _276  and  _279
REMARK  108  A    between atoms: _279  and  _280
REMARK  109  A    between atoms: _283  and  _285
REMARK  110  A    between atoms: _285  and  _286
REMARK  111  A    between atoms: _285  and  _288
REMARK  112  A    between atoms: _288  and  _289
REMARK  113  A    between atoms: _289  and  _290
REMARK  114  A    between atoms: _290  and  _291
REMARK  115  A    between atoms: _300  and  _302
REMARK  116  A    between atoms: _302  and  _303
REMARK  117  A    between atoms: _302  and  _305
REMARK  118  A    between atoms: _305  and  _306
REMARK  119  A    between atoms: _309  and  _311
REMARK  120  A    between atoms: _311  and  _312
REMARK  121  A    between atoms: _311  and  _314
REMARK  122  A    between atoms: _314  and  _315
REMARK  123  A    between atoms: _320  and  _322
REMARK  124  A    between atoms: _322  and  _323
REMARK  125  A    between atoms: _322  and  _325
REMARK  126  A    between atoms: _325  and  _326
REMARK  127  A    between atoms: _329  and  _331
REMARK  128  A    between atoms: _331  and  _332
REMARK  129  A    between atoms: _331  and  _334
REMARK  130  A    between atoms: _334  and  _335
REMARK  131  A    between atoms: _338  and  _340
REMARK  132  A    between atoms: _340  and  _341
REMARK  133  A    between atoms: _340  and  _343
REMARK  134  A    between atoms: _343  and  _344
REMARK  135  A    between atoms: _344  and  _345
REMARK  136  A    between atoms: _348  and  _350
REMARK  137  A    between atoms: _350  and  _351
REMARK  138  A    between atoms: _350  and  _353
REMARK  139  A    between atoms: _353  and  _354
REMARK  140  A    between atoms: _354  and  _355
REMARK  141  A    between atoms: _360  and  _362
REMARK  142  A    between atoms: _362  and  _363
REMARK  143  A    between atoms: _365  and  _367
REMARK  144  A    between atoms: _367  and  _368
REMARK  145  A    between atoms: _367  and  _370
REMARK  146  A    between atoms: _370  and  _371
REMARK  147  A    between atoms: _381  and  _383
REMARK  148  A    between atoms: _383  and  _384
REMARK  149  A    between atoms: _387  and  _389
REMARK  150  A    between atoms: _389  and  _390
REMARK  151  A    between atoms: _393  and  _395
REMARK  152  A    between atoms: _395  and  _396
REMARK  153  A    between atoms: _398  and  _400
REMARK  154  A    between atoms: _400  and  _401
REMARK  155  A    between atoms: _403  and  _405
REMARK  156  A    between atoms: _405  and  _406
REMARK  157  A    between atoms: _408  and  _410
REMARK  158  A    between atoms: _410  and  _411
REMARK  159  A    between atoms: _410  and  _413
REMARK  160  A    between atoms: _413  and  _414
REMARK  161  A    between atoms: _419  and  _421
REMARK  162  A    between atoms: _421  and  _422
REMARK  163  A    between atoms: _421  and  _424
REMARK  164  A    between atoms: _424  and  _425
REMARK  165  A    between atoms: _427  and  _429
REMARK  166  A    between atoms: _429  and  _430
REMARK  167  A    between atoms: _429  and  _432
REMARK  168  A    between atoms: _432  and  _433
REMARK  169  A    between atoms: _436  and  _438
REMARK  170  A    between atoms: _438  and  _439
REMARK  171  A    between atoms: _438  and  _441
REMARK  172  A    between atoms: _441  and  _442
REMARK  173  A    between atoms: _442  and  _443
REMARK  174  A    between atoms: _443  and  _444
REMARK  175  A    between atoms: _453  and  _455
REMARK  176  A    between atoms: _455  and  _456
REMARK  177  A    between atoms: _455  and  _458
REMARK  178  A    between atoms: _458  and  _459
REMARK  179  A    between atoms: _465  and  _467
REMARK  180  A    between atoms: _467  and  _468
REMARK  181  A    between atoms: _467  and  _470
REMARK  182  A    between atoms: _470  and  _471
REMARK  183  A    between atoms: _471  and  _472
REMARK  184  A    between atoms: _472  and  _473
REMARK  185  A    between atoms: _473  and  _474
REMARK  186  A    between atoms: _478  and  _480
REMARK  187  A    between atoms: _480  and  _481
REMARK  188  A    between atoms: _480  and  _483
REMARK  189  A    between atoms: _483  and  _484
REMARK  190  A    between atoms: _484  and  _485
REMARK  191  A    between atoms: _490  and  _492
REMARK  192  A    between atoms: _492  and  _493
REMARK  193  A    between atoms: _492  and  _495
REMARK  194  A    between atoms: _495  and  _496
REMARK  195  A    between atoms: _499  and  _501
REMARK  196  A    between atoms: _501  and  _502
REMARK  197  A    between atoms: _501  and  _504
REMARK  198  A    between atoms: _504  and  _505
REMARK  199  A    between atoms: _508  and  _510
REMARK  200  A    between atoms: _510  and  _511
REMARK  201  A    between atoms: _514  and  _516
REMARK  202  A    between atoms: _516  and  _517
REMARK  203  A    between atoms: _516  and  _519
REMARK  204  A    between atoms: _519  and  _520
REMARK  205  A    between atoms: _523  and  _525
REMARK  206  A    between atoms: _525  and  _526
REMARK  207  A    between atoms: _525  and  _528
REMARK  208  A    between atoms: _531  and  _533
REMARK  209  A    between atoms: _533  and  _534
REMARK  210  A    between atoms: _536  and  _538
REMARK  211  A    between atoms: _538  and  _539
REMARK  212  A    between atoms: _538  and  _541
REMARK  213  A    between atoms: _541  and  _542
REMARK  214  A    between atoms: _544  and  _546
REMARK  215  A    between atoms: _546  and  _547
REMARK  216  A    between atoms: _546  and  _549
REMARK  217  A    between atoms: _549  and  _550
REMARK  218  A    between atoms: _556  and  _558
REMARK  219  A    between atoms: _558  and  _559
REMARK  220  A    between atoms: _558  and  _561
REMARK  221  A    between atoms: _561  and  _562
REMARK  222  A    between atoms: _565  and  _567
REMARK  223  A    between atoms: _567  and  _568
REMARK  224  A    between atoms: _570  and  _572
REMARK  225  A    between atoms: _572  and  _573
REMARK  226  A    between atoms: _575  and  _577
REMARK  227  A    between atoms: _577  and  _578
REMARK  228  A    between atoms: _577  and  _580
REMARK  229  A    between atoms: _580  and  _581
REMARK  230  A    between atoms: _586  and  _587
REMARK  231  A    between atoms: _589  and  _591
REMARK  232  A    between atoms: _591  and  _592
REMARK  233  A    between atoms: _594  and  _596
REMARK  234  A    between atoms: _596  and  _597
REMARK  235  A    between atoms: _596  and  _599
REMARK  236  A    between atoms: _599  and  _600
REMARK  237  A    between atoms: _606  and  _608
REMARK  238  A    between atoms: _608  and  _609
REMARK  239  A    between atoms: _608  and  _611
REMARK  240  A    between atoms: _611  and  _612
REMARK  241  A    between atoms: _615  and  _617
REMARK  242  A    between atoms: _617  and  _618
REMARK  243  A    between atoms: _617  and  _620
REMARK  244  A    between atoms: _620  and  _621
REMARK  245  A    between atoms: _621  and  _622
REMARK  246  A    between atoms: _627  and  _629
REMARK  247  A    between atoms: _629  and  _630
REMARK  248  A    between atoms: _633  and  _635
REMARK  249  A    between atoms: _635  and  _636
REMARK  250  A    between atoms: _638  and  _640
REMARK  251  A    between atoms: _640  and  _641
REMARK  252  A    between atoms: _640  and  _643
REMARK  253  A    between atoms: _643  and  _644
REMARK  254  A    between atoms: _644  and  _645
REMARK  255  A    between atoms: _648  and  _650
REMARK  256  A    between atoms: _650  and  _651
REMARK  257  A    between atoms: _650  and  _653
REMARK  258  A    between atoms: _653  and  _654
REMARK  259  A    between atoms: _657  and  _659
REMARK  260  A    between atoms: _659  and  _660
REMARK  261  A    between atoms: _659  and  _662
REMARK  262  A    between atoms: _662  and  _663
REMARK  263  A    between atoms: _663  and  _664
REMARK  264  A    between atoms: _664  and  _665
REMARK  265  A    between atoms: _674  and  _676
REMARK  266  A    between atoms: _676  and  _677
REMARK  267  A    between atoms: _676  and  _679
REMARK  268  A    between atoms: _679  and  _680
REMARK  269  A    between atoms: _685  and  _686
REMARK  270  A    between atoms: _688  and  _690
REMARK  271  A    between atoms: _690  and  _691
REMARK  272  A    between atoms: _693  and  _695
REMARK  273  A    between atoms: _695  and  _696
REMARK  274  A    between atoms: _695  and  _698
REMARK  275  A    between atoms: _698  and  _699
REMARK  276  A    between atoms: _705  and  _707
REMARK  277  A    between atoms: _707  and  _708
REMARK  278  A    between atoms: _707  and  _710
REMARK  279  A    between atoms: _710  and  _711
REMARK  280  A    between atoms: _714  and  _716
REMARK  281  A    between atoms: _716  and  _717
REMARK  282  A    between atoms: _716  and  _719
REMARK  283  A    between atoms: _719  and  _720
REMARK  284  A    between atoms: _720  and  _721
REMARK  285  A    between atoms: _726  and  _728
REMARK  286  A    between atoms: _728  and  _729
REMARK  287  A    between atoms: _728  and  _731
REMARK  288  A    between atoms: _731  and  _732
REMARK  289  A    between atoms: _732  and  _733
REMARK  290  A    between atoms: _733  and  _734
REMARK  291  A    between atoms: _734  and  _735
REMARK                            x       y       z     vdW  Elec       q    Type
REMARK                         _______ _______ _______ _____ _____    ______ ____
ROOT
ATOM      1  O   HOH     1      37.842  -8.995 179.095  0.00  0.00    +0.000 OA
ENDROOT
TORSDOF 0
REMARK  Name = ../refined-set-2016/4qij/4qij_pocket.pdb
REMARK  291 active torsions:
REMARK  status: ('A' for Active; 'I' for Inactive)
REMARK    1  A    between atoms: _1  and  _3
REMARK    2  A    between atoms: _3  and  _4
REMARK    3  A    between atoms: _3  and  _6
REMARK    4  A    between atoms: _6  and  _7
REMARK    5  A    between atoms: _7  and  _8
REMARK    6  A    between atoms: _8  and  _9
REMARK    7  A    between atoms: _19  and  _20
REMARK    8  A    between atoms: _25  and  _27
REMARK    9  A    between atoms: _27  and  _28
REMARK   10  A    between atoms: _27  and  _30
REMARK   11  A    between atoms: _30  and  _31
REMARK   12  A    between atoms: _31  and  _32
REMARK   13  A    between atoms: _35  and  _37
REMARK   14  A    between atoms: _37  and  _38
REMARK   15  A    between atoms: _37  and  _40
REMARK   16  A    between atoms: _43  and  _45
REMARK   17  A    between atoms: _45  and  _46
REMARK   18  A    between atoms: _45  and  _48
REMARK   19  A    between atoms: _48  and  _49
REMARK   20  A    between atoms: _49  and  _50
REMARK   21  A    between atoms: _50  and  _51
REMARK   22  A    between atoms: _60  and  _62
REMARK   23  A    between atoms: _62  and  _63
REMARK   24  A    between atoms: _62  and  _65
REMARK   25  A    between atoms: _65  and  _66
REMARK   26  A    between atoms: _71  and  _73
REMARK   27  A    between atoms: _73  and  _74
REMARK   28  A    between atoms: _77  and  _79
REMARK   29  A    between atoms: _79  and  _80
REMARK   30  A    between atoms: _79  and  _82
REMARK   31  A    between atoms: _82  and  _83
REMARK   32  A    between atoms: _89  and  _91
REMARK   33  A    between atoms: _91  and  _92
REMARK   34  A    between atoms: _91  and  _94
REMARK   35  A    between atoms: _97  and  _99
REMARK   36  A    between atoms: _99  and  _100
REMARK   37  A    between atoms: _99  and  _102
REMARK   38  A    between atoms: _102  and  _103
REMARK   39  A    between atoms: _105  and  _107
REMARK   40  A    between atoms: _107  and  _108
REMARK   41  A    between atoms: _107  and  _110
REMARK   42  A    between atoms: _110  and  _111
REMARK   43  A    between atoms: _111  and  _112
REMARK   44  A    between atoms: _112  and  _113
REMARK   45  A    between atoms: _113  and  _114
REMARK   46  A    between atoms: _118  and  _120
REMARK   47  A    between atoms: _120  and  _121
REMARK   48  A    between atoms: _120  and  _123
REMARK   49  A    between atoms: _123  and  _124
REMARK   50  A    between atoms: _127  and  _129
REMARK   51  A    between atoms: _129  and  _130
REMARK   52  A    between atoms: _132  and  _134
REMARK   53  A    between atoms: _134  and  _135
REMARK   54  A    between atoms: _134  and  _137
REMARK   55  A    between atoms: _137  and  _138
REMARK   56  A    between atoms: _148  and  _150
REMARK   57  A    between atoms: _150  and  _151
REMARK   58  A    between atoms: _154  and  _156
REMARK   59  A    between atoms: _156  and  _157
REMARK   60  A    between atoms: _156  and  _159
REMARK   61  A    between atoms: _159  and  _160
REMARK   62  A    between atoms: _166  and  _168
REMARK   63  A    between atoms: _168  and  _169
REMARK   64  A    between atoms: _168  and  _171
REMARK   65  A    between atoms: _173  and  _175
REMARK   66  A    between atoms: _175  and  _176
REMARK   67  A    between atoms: _175  and  _178
REMARK   68  A    between atoms: _178  and  _179
REMARK   69  A    between atoms: _181  and  _183
REMARK   70  A    between atoms: _183  and  _184
REMARK   71  A    between atoms: _186  and  _188
REMARK   72  A    between atoms: _188  and  _189
REMARK   73  A    between atoms: _191  and  _193
REMARK   74  A    between atoms: _193  and  _194
REMARK   75  A    between atoms: _193  and  _196
REMARK   76  A    between atoms: _196  and  _197
REMARK   77  A    between atoms: _200  and  _202
REMARK   78  A    between atoms: _202  and  _203
REMARK   79  A    between atoms: _202  and  _205
REMARK   80  A    between atoms: _205  and  _206
REMARK   81  A    between atoms: _206  and  _207
REMARK   82  A    between atoms: _212  and  _214
REMARK   83  A    between atoms: _214  and  _215
REMARK   84  A    between atoms: _214  and  _217
REMARK   85  A    between atoms: _217  and  _218
REMARK   86  A    between atoms: _218  and  _219
REMARK   87  A    between atoms: _219  and  _220
REMARK   88  A    between atoms: _229  and  _231
REMARK   89  A    between atoms: _231  and  _232
REMARK   90  A    between atoms: _231  and  _234
REMARK   91  A    between atoms: _234  and  _235
REMARK   92  A    between atoms: _238  and  _240
REMARK   93  A    between atoms: _240  and  _241
REMARK   94  A    between atoms: _240  and  _243
REMARK   95  A    between atoms: _243  and  _244
REMARK   96  A    between atoms: _244  and  _245
REMARK   97  A    between atoms: _245  and  _246
REMARK   98  A    between atoms: _255  and  _257
REMARK   99  A    between atoms: _257  and  _258
REMARK  100  A    between atoms: _260  and  _262
REMARK  101  A    between atoms: _262  and  _263
REMARK  102  A    between atoms: _262  and  _265
REMARK  103  A    between atoms: _265  and  _266
REMARK  104  A    between atoms: _271  and  _272
REMARK  105  A    between atoms: _274  and  _276
REMARK  106  A    between atoms: _276  and  _277
REMARK  107  A    between atoms: _276  and  _279
REMARK  108  A    between atoms: _279  and  _280
REMARK  109  A    between atoms: _283  and  _285
REMARK  110  A    between atoms: _285  and  _286
REMARK  111  A    between atoms: _285  and  _288
REMARK  112  A    between atoms: _288  and  _289
REMARK  113  A    between atoms: _289  and  _290
REMARK  114  A    between atoms: _290  and  _291
REMARK  115  A    between atoms: _300  and  _302
REMARK  116  A    between atoms: _302  and  _303
REMARK  117  A    between atoms: _302  and  _305
REMARK  118  A    between atoms: _305  and  _306
REMARK  119  A    between atoms: _309  and  _311
REMARK  120  A    between atoms: _311  and  _312
REMARK  121  A    between atoms: _311  and  _314
REMARK  122  A    between atoms: _314  and  _315
REMARK  123  A    between atoms: _320  and  _322
REMARK  124  A    between atoms: _322  and  _323
REMARK  125  A    between atoms: _322  and  _325
REMARK  126  A    between atoms: _325  and  _326
REMARK  127  A    between atoms: _329  and  _331
REMARK  128  A    between atoms: _331  and  _332
REMARK  129  A    between atoms: _331  and  _334
REMARK  130  A    between atoms: _334  and  _335
REMARK  131  A    between atoms: _338  and  _340
REMARK  132  A    between atoms: _340  and  _341
REMARK  133  A    between atoms: _340  and  _343
REMARK  134  A    between atoms: _343  and  _344
REMARK  135  A    between atoms: _344  and  _345
REMARK  136  A    between atoms: _348  and  _350
REMARK  137  A    between atoms: _350  and  _351
REMARK  138  A    between atoms: _350  and  _353
REMARK  139  A    between atoms: _353  and  _354
REMARK  140  A    between atoms: _354  and  _355
REMARK  141  A    between atoms: _360  and  _362
REMARK  142  A    between atoms: _362  and  _363
REMARK  143  A    between atoms: _365  and  _367
REMARK  144  A    between atoms: _367  and  _368
REMARK  145  A    between atoms: _367  and  _370
REMARK  146  A    between atoms: _370  and  _371
REMARK  147  A    between atoms: _381  and  _383
REMARK  148  A    between atoms: _383  and  _384
REMARK  149  A    between atoms: _387  and  _389
REMARK  150  A    between atoms: _389  and  _390
REMARK  151  A    between atoms: _393  and  _395
REMARK  152  A    between atoms: _395  and  _396
REMARK  153  A    between atoms: _398  and  _400
REMARK  154  A    between atoms: _400  and  _401
REMARK  155  A    between atoms: _403  and  _405
REMARK  156  A    between atoms: _405  and  _406
REMARK  157  A    between atoms: _408  and  _410
REMARK  158  A    between atoms: _410  and  _411
REMARK  159  A    between atoms: _410  and  _413
REMARK  160  A    between atoms: _413  and  _414
REMARK  161  A    between atoms: _419  and  _421
REMARK  162  A    between atoms: _421  and  _422
REMARK  163  A    between atoms: _421  and  _424
REMARK  164  A    between atoms: _424  and  _425
REMARK  165  A    between atoms: _427  and  _429
REMARK  166  A    between atoms: _429  and  _430
REMARK  167  A    between atoms: _429  and  _432
REMARK  168  A    between atoms: _432  and  _433
REMARK  169  A    between atoms: _436  and  _438
REMARK  170  A    between atoms: _438  and  _439
REMARK  171  A    between atoms: _438  and  _441
REMARK  172  A    between atoms: _441  and  _442
REMARK  173  A    between atoms: _442  and  _443
REMARK  174  A    between atoms: _443  and  _444
REMARK  175  A    between atoms: _453  and  _455
REMARK  176  A    between atoms: _455  and  _456
REMARK  177  A    between atoms: _455  and  _458
REMARK  178  A    between atoms: _458  and  _459
REMARK  179  A    between atoms: _465  and  _467
REMARK  180  A    between atoms: _467  and  _468
REMARK  181  A    between atoms: _467  and  _470
REMARK  182  A    between atoms: _470  and  _471
REMARK  183  A    between atoms: _471  and  _472
REMARK  184  A    between atoms: _472  and  _473
REMARK  185  A    between atoms: _473  and  _474
REMARK  186  A    between atoms: _478  and  _480
REMARK  187  A    between atoms: _480  and  _481
REMARK  188  A    between atoms: _480  and  _483
REMARK  189  A    between atoms: _483  and  _484
REMARK  190  A    between atoms: _484  and  _485
REMARK  191  A    between atoms: _490  and  _492
REMARK  192  A    between atoms: _492  and  _493
REMARK  193  A    between atoms: _492  and  _495
REMARK  194  A    between atoms: _495  and  _496
REMARK  195  A    between atoms: _499  and  _501
REMARK  196  A    between atoms: _501  and  _502
REMARK  197  A    between atoms: _501  and  _504
REMARK  198  A    between atoms: _504  and  _505
REMARK  199  A    between atoms: _508  and  _510
REMARK  200  A    between atoms: _510  and  _511
REMARK  201  A    between atoms: _514  and  _516
REMARK  202  A    between atoms: _516  and  _517
REMARK  203  A    between atoms: _516  and  _519
REMARK  204  A    between atoms: _519  and  _520
REMARK  205  A    between atoms: _523  and  _525
REMARK  206  A    between atoms: _525  and  _526
REMARK  207  A    between atoms: _525  and  _528
REMARK  208  A    between atoms: _531  and  _533
REMARK  209  A    between atoms: _533  and  _534
REMARK  210  A    between atoms: _536  and  _538
REMARK  211  A    between atoms: _538  and  _539
REMARK  212  A    between atoms: _538  and  _541
REMARK  213  A    between atoms: _541  and  _542
REMARK  214  A    between atoms: _544  and  _546
REMARK  215  A    between atoms: _546  and  _547
REMARK  216  A    between atoms: _546  and  _549
REMARK  217  A    between atoms: _549  and  _550
REMARK  218  A    between atoms: _556  and  _558
REMARK  219  A    between atoms: _558  and  _559
REMARK  220  A    between atoms: _558  and  _561
REMARK  221  A    between atoms: _561  and  _562
REMARK  222  A    between atoms: _565  and  _567
REMARK  223  A    between atoms: _567  and  _568
REMARK  224  A    between atoms: _570  and  _572
REMARK  225  A    between atoms: _572  and  _573
REMARK  226  A    between atoms: _575  and  _577
REMARK  227  A    between atoms: _577  and  _578
REMARK  228  A    between atoms: _577  and  _580
REMARK  229  A    between atoms: _580  and  _581
REMARK  230  A    between atoms: _586  and  _587
REMARK  231  A    between atoms: _589  and  _591
REMARK  232  A    between atoms: _591  and  _592
REMARK  233  A    between atoms: _594  and  _596
REMARK  234  A    between atoms: _596  and  _597
REMARK  235  A    between atoms: _596  and  _599
REMARK  236  A    between atoms: _599  and  _600
REMARK  237  A    between atoms: _606  and  _608
REMARK  238  A    between atoms: _608  and  _609
REMARK  239  A    between atoms: _608  and  _611
REMARK  240  A    between atoms: _611  and  _612
REMARK  241  A    between atoms: _615  and  _617
REMARK  242  A    between atoms: _617  and  _618
REMARK  243  A    between atoms: _617  and  _620
REMARK  244  A    between atoms: _620  and  _621
REMARK  245  A    between atoms: _621  and  _622
REMARK  246  A    between atoms: _627  and  _629
REMARK  247  A    between atoms: _629  and  _630
REMARK  248  A    between atoms: _633  and  _635
REMARK  249  A    between atoms: _635  and  _636
REMARK  250  A    between atoms: _638  and  _640
REMARK  251  A    between atoms: _640  and  _641
REMARK  252  A    between atoms: _640  and  _643
REMARK  253  A    between atoms: _643  and  _644
REMARK  254  A    between atoms: _644  and  _645
REMARK  255  A    between atoms: _648  and  _650
REMARK  256  A    between atoms: _650  and  _651
REMARK  257  A    between atoms: _650  and  _653
REMARK  258  A    between atoms: _653  and  _654
REMARK  259  A    between atoms: _657  and  _659
REMARK  260  A    between atoms: _659  and  _660
REMARK  261  A    between atoms: _659  and  _662
REMARK  262  A    between atoms: _662  and  _663
REMARK  263  A    between atoms: _663  and  _664
REMARK  264  A    between atoms: _664  and  _665
REMARK  265  A    between atoms: _674  and  _676
REMARK  266  A    between atoms: _676  and  _677
REMARK  267  A    between atoms: _676  and  _679
REMARK  268  A    between atoms: _679  and  _680
REMARK  269  A    between atoms: _685  and  _686
REMARK  270  A    between atoms: _688  and  _690
REMARK  271  A    between atoms: _690  and  _691
REMARK  272  A    between atoms: _693  and  _695
REMARK  273  A    between atoms: _695  and  _696
REMARK  274  A    between atoms: _695  and  _698
REMARK  275  A    between atoms: _698  and  _699
REMARK  276  A    between atoms: _705  and  _707
REMARK  277  A    between atoms: _707  and  _708
REMARK  278  A    between atoms: _707  and  _710
REMARK  279  A    between atoms: _710  and  _711
REMARK  280  A    between atoms: _714  and  _716
REMARK  281  A    between atoms: _716  and  _717
REMARK  282  A    between atoms: _716  and  _719
REMARK  283  A    between atoms: _719  and  _720
REMARK  284  A    between atoms: _720  and  _721
REMARK  285  A    between atoms: _726  and  _728
REMARK  286  A    between atoms: _728  and  _729
REMARK  287  A    between atoms: _728  and  _731
REMARK  288  A    between atoms: _731  and  _732
REMARK  289  A    between atoms: _732  and  _733
REMARK  290  A    between atoms: _733  and  _734
REMARK  291  A    between atoms: _734  and  _735
REMARK                            x       y       z     vdW  Elec       q    Type
REMARK                         _______ _______ _______ _____ _____    ______ ____
ROOT
ATOM      1  O   HOH     1      25.520 -16.921 197.456  0.00  0.00    +0.000 OA
ENDROOT
TORSDOF 0
REMARK  Name = ../refined-set-2016/4qij/4qij_pocket.pdb
REMARK  291 active torsions:
REMARK  status: ('A' for Active; 'I' for Inactive)
REMARK    1  A    between atoms: _1  and  _3
REMARK    2  A    between atoms: _3  and  _4
REMARK    3  A    between atoms: _3  and  _6
REMARK    4  A    between atoms: _6  and  _7
REMARK    5  A    between atoms: _7  and  _8
REMARK    6  A    between atoms: _8  and  _9
REMARK    7  A    between atoms: _19  and  _20
REMARK    8  A    between atoms: _25  and  _27
REMARK    9  A    between atoms: _27  and  _28
REMARK   10  A    between atoms: _27  and  _30
REMARK   11  A    between atoms: _30  and  _31
REMARK   12  A    between atoms: _31  and  _32
REMARK   13  A    between atoms: _35  and  _37
REMARK   14  A    between atoms: _37  and  _38
REMARK   15  A    between atoms: _37  and  _40
REMARK   16  A    between atoms: _43  and  _45
REMARK   17  A    between atoms: _45  and  _46
REMARK   18  A    between atoms: _45  and  _48
REMARK   19  A    between atoms: _48  and  _49
REMARK   20  A    between atoms: _49  and  _50
REMARK   21  A    between atoms: _50  and  _51
REMARK   22  A    between atoms: _60  and  _62
REMARK   23  A    between atoms: _62  and  _63
REMARK   24  A    between atoms: _62  and  _65
REMARK   25  A    between atoms: _65  and  _66
REMARK   26  A    between atoms: _71  and  _73
REMARK   27  A    between atoms: _73  and  _74
REMARK   28  A    between atoms: _77  and  _79
REMARK   29  A    between atoms: _79  and  _80
REMARK   30  A    between atoms: _79  and  _82
REMARK   31  A    between atoms: _82  and  _83
REMARK   32  A    between atoms: _89  and  _91
REMARK   33  A    between atoms: _91  and  _92
REMARK   34  A    between atoms: _91  and  _94
REMARK   35  A    between atoms: _97  and  _99
REMARK   36  A    between atoms: _99  and  _100
REMARK   37  A    between atoms: _99  and  _102
REMARK   38  A    between atoms: _102  and  _103
REMARK   39  A    between atoms: _105  and  _107
REMARK   40  A    between atoms: _107  and  _108
REMARK   41  A    between atoms: _107  and  _110
REMARK   42  A    between atoms: _110  and  _111
REMARK   43  A    between atoms: _111  and  _112
REMARK   44  A    between atoms: _112  and  _113
REMARK   45  A    between atoms: _113  and  _114
REMARK   46  A    between atoms: _118  and  _120
REMARK   47  A    between atoms: _120  and  _121
REMARK   48  A    between atoms: _120  and  _123
REMARK   49  A    between atoms: _123  and  _124
REMARK   50  A    between atoms: _127  and  _129
REMARK   51  A    between atoms: _129  and  _130
REMARK   52  A    between atoms: _132  and  _134
REMARK   53  A    between atoms: _134  and  _135
REMARK   54  A    between atoms: _134  and  _137
REMARK   55  A    between atoms: _137  and  _138
REMARK   56  A    between atoms: _148  and  _150
REMARK   57  A    between atoms: _150  and  _151
REMARK   58  A    between atoms: _154  and  _156
REMARK   59  A    between atoms: _156  and  _157
REMARK   60  A    between atoms: _156  and  _159
REMARK   61  A    between atoms: _159  and  _160
REMARK   62  A    between atoms: _166  and  _168
REMARK   63  A    between atoms: _168  and  _169
REMARK   64  A    between atoms: _168  and  _171
REMARK   65  A    between atoms: _173  and  _175
REMARK   66  A    between atoms: _175  and  _176
REMARK   67  A    between atoms: _175  and  _178
REMARK   68  A    between atoms: _178  and  _179
REMARK   69  A    between atoms: _181  and  _183
REMARK   70  A    between atoms: _183  and  _184
REMARK   71  A    between atoms: _186  and  _188
REMARK   72  A    between atoms: _188  and  _189
REMARK   73  A    between atoms: _191  and  _193
REMARK   74  A    between atoms: _193  and  _194
REMARK   75  A    between atoms: _193  and  _196
REMARK   76  A    between atoms: _196  and  _197
REMARK   77  A    between atoms: _200  and  _202
REMARK   78  A    between atoms: _202  and  _203
REMARK   79  A    between atoms: _202  and  _205
REMARK   80  A    between atoms: _205  and  _206
REMARK   81  A    between atoms: _206  and  _207
REMARK   82  A    between atoms: _212  and  _214
REMARK   83  A    between atoms: _214  and  _215
REMARK   84  A    between atoms: _214  and  _217
REMARK   85  A    between atoms: _217  and  _218
REMARK   86  A    between atoms: _218  and  _219
REMARK   87  A    between atoms: _219  and  _220
REMARK   88  A    between atoms: _229  and  _231
REMARK   89  A    between atoms: _231  and  _232
REMARK   90  A    between atoms: _231  and  _234
REMARK   91  A    between atoms: _234  and  _235
REMARK   92  A    between atoms: _238  and  _240
REMARK   93  A    between atoms: _240  and  _241
REMARK   94  A    between atoms: _240  and  _243
REMARK   95  A    between atoms: _243  and  _244
REMARK   96  A    between atoms: _244  and  _245
REMARK   97  A    between atoms: _245  and  _246
REMARK   98  A    between atoms: _255  and  _257
REMARK   99  A    between atoms: _257  and  _258
REMARK  100  A    between atoms: _260  and  _262
REMARK  101  A    between atoms: _262  and  _263
REMARK  102  A    between atoms: _262  and  _265
REMARK  103  A    between atoms: _265  and  _266
REMARK  104  A    between atoms: _271  and  _272
REMARK  105  A    between atoms: _274  and  _276
REMARK  106  A    between atoms: _276  and  _277
REMARK  107  A    between atoms: _276  and  _279
REMARK  108  A    between atoms: _279  and  _280
REMARK  109  A    between atoms: _283  and  _285
REMARK  110  A    between atoms: _285  and  _286
REMARK  111  A    between atoms: _285  and  _288
REMARK  112  A    between atoms: _288  and  _289
REMARK  113  A    between atoms: _289  and  _290
REMARK  114  A    between atoms: _290  and  _291
REMARK  115  A    between atoms: _300  and  _302
REMARK  116  A    between atoms: _302  and  _303
REMARK  117  A    between atoms: _302  and  _305
REMARK  118  A    between atoms: _305  and  _306
REMARK  119  A    between atoms: _309  and  _311
REMARK  120  A    between atoms: _311  and  _312
REMARK  121  A    between atoms: _311  and  _314
REMARK  122  A    between atoms: _314  and  _315
REMARK  123  A    between atoms: _320  and  _322
REMARK  124  A    between atoms: _322  and  _323
REMARK  125  A    between atoms: _322  and  _325
REMARK  126  A    between atoms: _325  and  _326
REMARK  127  A    between atoms: _329  and  _331
REMARK  128  A    between atoms: _331  and  _332
REMARK  129  A    between atoms: _331  and  _334
REMARK  130  A    between atoms: _334  and  _335
REMARK  131  A    between atoms: _338  and  _340
REMARK  132  A    between atoms: _340  and  _341
REMARK  133  A    between atoms: _340  and  _343
REMARK  134  A    between atoms: _343  and  _344
REMARK  135  A    between atoms: _344  and  _345
REMARK  136  A    between atoms: _348  and  _350
REMARK  137  A    between atoms: _350  and  _351
REMARK  138  A    between atoms: _350  and  _353
REMARK  139  A    between atoms: _353  and  _354
REMARK  140  A    between atoms: _354  and  _355
REMARK  141  A    between atoms: _360  and  _362
REMARK  142  A    between atoms: _362  and  _363
REMARK  143  A    between atoms: _365  and  _367
REMARK  144  A    between atoms: _367  and  _368
REMARK  145  A    between atoms: _367  and  _370
REMARK  146  A    between atoms: _370  and  _371
REMARK  147  A    between atoms: _381  and  _383
REMARK  148  A    between atoms: _383  and  _384
REMARK  149  A    between atoms: _387  and  _389
REMARK  150  A    between atoms: _389  and  _390
REMARK  151  A    between atoms: _393  and  _395
REMARK  152  A    between atoms: _395  and  _396
REMARK  153  A    between atoms: _398  and  _400
REMARK  154  A    between atoms: _400  and  _401
REMARK  155  A    between atoms: _403  and  _405
REMARK  156  A    between atoms: _405  and  _406
REMARK  157  A    between atoms: _408  and  _410
REMARK  158  A    between atoms: _410  and  _411
REMARK  159  A    between atoms: _410  and  _413
REMARK  160  A    between atoms: _413  and  _414
REMARK  161  A    between atoms: _419  and  _421
REMARK  162  A    between atoms: _421  and  _422
REMARK  163  A    between atoms: _421  and  _424
REMARK  164  A    between atoms: _424  and  _425
REMARK  165  A    between atoms: _427  and  _429
REMARK  166  A    between atoms: _429  and  _430
REMARK  167  A    between atoms: _429  and  _432
REMARK  168  A    between atoms: _432  and  _433
REMARK  169  A    between atoms: _436  and  _438
REMARK  170  A    between atoms: _438  and  _439
REMARK  171  A    between atoms: _438  and  _441
REMARK  172  A    between atoms: _441  and  _442
REMARK  173  A    between atoms: _442  and  _443
REMARK  174  A    between atoms: _443  and  _444
REMARK  175  A    between atoms: _453  and  _455
REMARK  176  A    between atoms: _455  and  _456
REMARK  177  A    between atoms: _455  and  _458
REMARK  178  A    between atoms: _458  and  _459
REMARK  179  A    between atoms: _465  and  _467
REMARK  180  A    between atoms: _467  and  _468
REMARK  181  A    between atoms: _467  and  _470
REMARK  182  A    between atoms: _470  and  _471
REMARK  183  A    between atoms: _471  and  _472
REMARK  184  A    between atoms: _472  and  _473
REMARK  185  A    between atoms: _473  and  _474
REMARK  186  A    between atoms: _478  and  _480
REMARK  187  A    between atoms: _480  and  _481
REMARK  188  A    between atoms: _480  and  _483
REMARK  189  A    between atoms: _483  and  _484
REMARK  190  A    between atoms: _484  and  _485
REMARK  191  A    between atoms: _490  and  _492
REMARK  192  A    between atoms: _492  and  _493
REMARK  193  A    between atoms: _492  and  _495
REMARK  194  A    between atoms: _495  and  _496
REMARK  195  A    between atoms: _499  and  _501
REMARK  196  A    between atoms: _501  and  _502
REMARK  197  A    between atoms: _501  and  _504
REMARK  198  A    between atoms: _504  and  _505
REMARK  199  A    between atoms: _508  and  _510
REMARK  200  A    between atoms: _510  and  _511
REMARK  201  A    between atoms: _514  and  _516
REMARK  202  A    between atoms: _516  and  _517
REMARK  203  A    between atoms: _516  and  _519
REMARK  204  A    between atoms: _519  and  _520
REMARK  205  A    between atoms: _523  and  _525
REMARK  206  A    between atoms: _525  and  _526
REMARK  207  A    between atoms: _525  and  _528
REMARK  208  A    between atoms: _531  and  _533
REMARK  209  A    between atoms: _533  and  _534
REMARK  210  A    between atoms: _536  and  _538
REMARK  211  A    between atoms: _538  and  _539
REMARK  212  A    between atoms: _538  and  _541
REMARK  213  A    between atoms: _541  and  _542
REMARK  214  A    between atoms: _544  and  _546
REMARK  215  A    between atoms: _546  and  _547
REMARK  216  A    between atoms: _546  and  _549
REMARK  217  A    between atoms: _549  and  _550
REMARK  218  A    between atoms: _556  and  _558
REMARK  219  A    between atoms: _558  and  _559
REMARK  220  A    between atoms: _558  and  _561
REMARK  221  A    between atoms: _561  and  _562
REMARK  222  A    between atoms: _565  and  _567
REMARK  223  A    between atoms: _567  and  _568
REMARK  224  A    between atoms: _570  and  _572
REMARK  225  A    between atoms: _572  and  _573
REMARK  226  A    between atoms: _575  and  _577
REMARK  227  A    between atoms: _577  and  _578
REMARK  228  A    between atoms: _577  and  _580
REMARK  229  A    between atoms: _580  and  _581
REMARK  230  A    between atoms: _586  and  _587
REMARK  231  A    between atoms: _589  and  _591
REMARK  232  A    between atoms: _591  and  _592
REMARK  233  A    between atoms: _594  and  _596
REMARK  234  A    between atoms: _596  and  _597
REMARK  235  A    between atoms: _596  and  _599
REMARK  236  A    between atoms: _599  and  _600
REMARK  237  A    between atoms: _606  and  _608
REMARK  238  A    between atoms: _608  and  _609
REMARK  239  A    between atoms: _608  and  _611
REMARK  240  A    between atoms: _611  and  _612
REMARK  241  A    between atoms: _615  and  _617
REMARK  242  A    between atoms: _617  and  _618
REMARK  243  A    between atoms: _617  and  _620
REMARK  244  A    between atoms: _620  and  _621
REMARK  245  A    between atoms: _621  and  _622
REMARK  246  A    between atoms: _627  and  _629
REMARK  247  A    between atoms: _629  and  _630
REMARK  248  A    between atoms: _633  and  _635
REMARK  249  A    between atoms: _635  and  _636
REMARK  250  A    between atoms: _638  and  _640
REMARK  251  A    between atoms: _640  and  _641
REMARK  252  A    between atoms: _640  and  _643
REMARK  253  A    between atoms: _643  and  _644
REMARK  254  A    between atoms: _644  and  _645
REMARK  255  A    between atoms: _648  and  _650
REMARK  256  A    between atoms: _650  and  _651
REMARK  257  A    between atoms: _650  and  _653
REMARK  258  A    between atoms: _653  and  _654
REMARK  259  A    between atoms: _657  and  _659
REMARK  260  A    between atoms: _659  and  _660
REMARK  261  A    between atoms: _659  and  _662
REMARK  262  A    between atoms: _662  and  _663
REMARK  263  A    between atoms: _663  and  _664
REMARK  264  A    between atoms: _664  and  _665
REMARK  265  A    between atoms: _674  and  _676
REMARK  266  A    between atoms: _676  and  _677
REMARK  267  A    between atoms: _676  and  _679
REMARK  268  A    between atoms: _679  and  _680
REMARK  269  A    between atoms: _685  and  _686
REMARK  270  A    between atoms: _688  and  _690
REMARK  271  A    between atoms: _690  and  _691
REMARK  272  A    between atoms: _693  and  _695
REMARK  273  A    between atoms: _695  and  _696
REMARK  274  A    between atoms: _695  and  _698
REMARK  275  A    between atoms: _698  and  _699
REMARK  276  A    between atoms: _705  and  _707
REMARK  277  A    between atoms: _707  and  _708
REMARK  278  A    between atoms: _707  and  _710
REMARK  279  A    between atoms: _710  and  _711
REMARK  280  A    between atoms: _714  and  _716
REMARK  281  A    between atoms: _716  and  _717
REMARK  282  A    between atoms: _716  and  _719
REMARK  283  A    between atoms: _719  and  _720
REMARK  284  A    between atoms: _720  and  _721
REMARK  285  A    between atoms: _726  and  _728
REMARK  286  A    between atoms: _728  and  _729
REMARK  287  A    between atoms: _728  and  _731
REMARK  288  A    between atoms: _731  and  _732
REMARK  289  A    between atoms: _732  and  _733
REMARK  290  A    between atoms: _733  and  _734
REMARK  291  A    between atoms: _734  and  _735
REMARK                            x       y       z     vdW  Elec       q    Type
REMARK                         _______ _______ _______ _____ _____    ______ ____
ROOT
ATOM      1  O   HOH     1      28.011 -20.424 197.936  0.00  0.00    +0.000 OA
ENDROOT
TORSDOF 0
REMARK  Name = ../refined-set-2016/4qij/4qij_pocket.pdb
REMARK  291 active torsions:
REMARK  status: ('A' for Active; 'I' for Inactive)
REMARK    1  A    between atoms: _1  and  _3
REMARK    2  A    between atoms: _3  and  _4
REMARK    3  A    between atoms: _3  and  _6
REMARK    4  A    between atoms: _6  and  _7
REMARK    5  A    between atoms: _7  and  _8
REMARK    6  A    between atoms: _8  and  _9
REMARK    7  A    between atoms: _19  and  _20
REMARK    8  A    between atoms: _25  and  _27
REMARK    9  A    between atoms: _27  and  _28
REMARK   10  A    between atoms: _27  and  _30
REMARK   11  A    between atoms: _30  and  _31
REMARK   12  A    between atoms: _31  and  _32
REMARK   13  A    between atoms: _35  and  _37
REMARK   14  A    between atoms: _37  and  _38
REMARK   15  A    between atoms: _37  and  _40
REMARK   16  A    between atoms: _43  and  _45
REMARK   17  A    between atoms: _45  and  _46
REMARK   18  A    between atoms: _45  and  _48
REMARK   19  A    between atoms: _48  and  _49
REMARK   20  A    between atoms: _49  and  _50
REMARK   21  A    between atoms: _50  and  _51
REMARK   22  A    between atoms: _60  and  _62
REMARK   23  A    between atoms: _62  and  _63
REMARK   24  A    between atoms: _62  and  _65
REMARK   25  A    between atoms: _65  and  _66
REMARK   26  A    between atoms: _71  and  _73
REMARK   27  A    between atoms: _73  and  _74
REMARK   28  A    between atoms: _77  and  _79
REMARK   29  A    between atoms: _79  and  _80
REMARK   30  A    between atoms: _79  and  _82
REMARK   31  A    between atoms: _82  and  _83
REMARK   32  A    between atoms: _89  and  _91
REMARK   33  A    between atoms: _91  and  _92
REMARK   34  A    between atoms: _91  and  _94
REMARK   35  A    between atoms: _97  and  _99
REMARK   36  A    between atoms: _99  and  _100
REMARK   37  A    between atoms: _99  and  _102
REMARK   38  A    between atoms: _102  and  _103
REMARK   39  A    between atoms: _105  and  _107
REMARK   40  A    between atoms: _107  and  _108
REMARK   41  A    between atoms: _107  and  _110
REMARK   42  A    between atoms: _110  and  _111
REMARK   43  A    between atoms: _111  and  _112
REMARK   44  A    between atoms: _112  and  _113
REMARK   45  A    between atoms: _113  and  _114
REMARK   46  A    between atoms: _118  and  _120
REMARK   47  A    between atoms: _120  and  _121
REMARK   48  A    between atoms: _120  and  _123
REMARK   49  A    between atoms: _123  and  _124
REMARK   50  A    between atoms: _127  and  _129
REMARK   51  A    between atoms: _129  and  _130
REMARK   52  A    between atoms: _132  and  _134
REMARK   53  A    between atoms: _134  and  _135
REMARK   54  A    between atoms: _134  and  _137
REMARK   55  A    between atoms: _137  and  _138
REMARK   56  A    between atoms: _148  and  _150
REMARK   57  A    between atoms: _150  and  _151
REMARK   58  A    between atoms: _154  and  _156
REMARK   59  A    between atoms: _156  and  _157
REMARK   60  A    between atoms: _156  and  _159
REMARK   61  A    between atoms: _159  and  _160
REMARK   62  A    between atoms: _166  and  _168
REMARK   63  A    between atoms: _168  and  _169
REMARK   64  A    between atoms: _168  and  _171
REMARK   65  A    between atoms: _173  and  _175
REMARK   66  A    between atoms: _175  and  _176
REMARK   67  A    between atoms: _175  and  _178
REMARK   68  A    between atoms: _178  and  _179
REMARK   69  A    between atoms: _181  and  _183
REMARK   70  A    between atoms: _183  and  _184
REMARK   71  A    between atoms: _186  and  _188
REMARK   72  A    between atoms: _188  and  _189
REMARK   73  A    between atoms: _191  and  _193
REMARK   74  A    between atoms: _193  and  _194
REMARK   75  A    between atoms: _193  and  _196
REMARK   76  A    between atoms: _196  and  _197
REMARK   77  A    between atoms: _200  and  _202
REMARK   78  A    between atoms: _202  and  _203
REMARK   79  A    between atoms: _202  and  _205
REMARK   80  A    between atoms: _205  and  _206
REMARK   81  A    between atoms: _206  and  _207
REMARK   82  A    between atoms: _212  and  _214
REMARK   83  A    between atoms: _214  and  _215
REMARK   84  A    between atoms: _214  and  _217
REMARK   85  A    between atoms: _217  and  _218
REMARK   86  A    between atoms: _218  and  _219
REMARK   87  A    between atoms: _219  and  _220
REMARK   88  A    between atoms: _229  and  _231
REMARK   89  A    between atoms: _231  and  _232
REMARK   90  A    between atoms: _231  and  _234
REMARK   91  A    between atoms: _234  and  _235
REMARK   92  A    between atoms: _238  and  _240
REMARK   93  A    between atoms: _240  and  _241
REMARK   94  A    between atoms: _240  and  _243
REMARK   95  A    between atoms: _243  and  _244
REMARK   96  A    between atoms: _244  and  _245
REMARK   97  A    between atoms: _245  and  _246
REMARK   98  A    between atoms: _255  and  _257
REMARK   99  A    between atoms: _257  and  _258
REMARK  100  A    between atoms: _260  and  _262
REMARK  101  A    between atoms: _262  and  _263
REMARK  102  A    between atoms: _262  and  _265
REMARK  103  A    between atoms: _265  and  _266
REMARK  104  A    between atoms: _271  and  _272
REMARK  105  A    between atoms: _274  and  _276
REMARK  106  A    between atoms: _276  and  _277
REMARK  107  A    between atoms: _276  and  _279
REMARK  108  A    between atoms: _279  and  _280
REMARK  109  A    between atoms: _283  and  _285
REMARK  110  A    between atoms: _285  and  _286
REMARK  111  A    between atoms: _285  and  _288
REMARK  112  A    between atoms: _288  and  _289
REMARK  113  A    between atoms: _289  and  _290
REMARK  114  A    between atoms: _290  and  _291
REMARK  115  A    between atoms: _300  and  _302
REMARK  116  A    between atoms: _302  and  _303
REMARK  117  A    between atoms: _302  and  _305
REMARK  118  A    between atoms: _305  and  _306
REMARK  119  A    between atoms: _309  and  _311
REMARK  120  A    between atoms: _311  and  _312
REMARK  121  A    between atoms: _311  and  _314
REMARK  122  A    between atoms: _314  and  _315
REMARK  123  A    between atoms: _320  and  _322
REMARK  124  A    between atoms: _322  and  _323
REMARK  125  A    between atoms: _322  and  _325
REMARK  126  A    between atoms: _325  and  _326
REMARK  127  A    between atoms: _329  and  _331
REMARK  128  A    between atoms: _331  and  _332
REMARK  129  A    between atoms: _331  and  _334
REMARK  130  A    between atoms: _334  and  _335
REMARK  131  A    between atoms: _338  and  _340
REMARK  132  A    between atoms: _340  and  _341
REMARK  133  A    between atoms: _340  and  _343
REMARK  134  A    between atoms: _343  and  _344
REMARK  135  A    between atoms: _344  and  _345
REMARK  136  A    between atoms: _348  and  _350
REMARK  137  A    between atoms: _350  and  _351
REMARK  138  A    between atoms: _350  and  _353
REMARK  139  A    between atoms: _353  and  _354
REMARK  140  A    between atoms: _354  and  _355
REMARK  141  A    between atoms: _360  and  _362
REMARK  142  A    between atoms: _362  and  _363
REMARK  143  A    between atoms: _365  and  _367
REMARK  144  A    between atoms: _367  and  _368
REMARK  145  A    between atoms: _367  and  _370
REMARK  146  A    between atoms: _370  and  _371
REMARK  147  A    between atoms: _381  and  _383
REMARK  148  A    between atoms: _383  and  _384
REMARK  149  A    between atoms: _387  and  _389
REMARK  150  A    between atoms: _389  and  _390
REMARK  151  A    between atoms: _393  and  _395
REMARK  152  A    between atoms: _395  and  _396
REMARK  153  A    between atoms: _398  and  _400
REMARK  154  A    between atoms: _400  and  _401
REMARK  155  A    between atoms: _403  and  _405
REMARK  156  A    between atoms: _405  and  _406
REMARK  157  A    between atoms: _408  and  _410
REMARK  158  A    between atoms: _410  and  _411
REMARK  159  A    between atoms: _410  and  _413
REMARK  160  A    between atoms: _413  and  _414
REMARK  161  A    between atoms: _419  and  _421
REMARK  162  A    between atoms: _421  and  _422
REMARK  163  A    between atoms: _421  and  _424
REMARK  164  A    between atoms: _424  and  _425
REMARK  165  A    between atoms: _427  and  _429
REMARK  166  A    between atoms: _429  and  _430
REMARK  167  A    between atoms: _429  and  _432
REMARK  168  A    between atoms: _432  and  _433
REMARK  169  A    between atoms: _436  and  _438
REMARK  170  A    between atoms: _438  and  _439
REMARK  171  A    between atoms: _438  and  _441
REMARK  172  A    between atoms: _441  and  _442
REMARK  173  A    between atoms: _442  and  _443
REMARK  174  A    between atoms: _443  and  _444
REMARK  175  A    between atoms: _453  and  _455
REMARK  176  A    between atoms: _455  and  _456
REMARK  177  A    between atoms: _455  and  _458
REMARK  178  A    between atoms: _458  and  _459
REMARK  179  A    between atoms: _465  and  _467
REMARK  180  A    between atoms: _467  and  _468
REMARK  181  A    between atoms: _467  and  _470
REMARK  182  A    between atoms: _470  and  _471
REMARK  183  A    between atoms: _471  and  _472
REMARK  184  A    between atoms: _472  and  _473
REMARK  185  A    between atoms: _473  and  _474
REMARK  186  A    between atoms: _478  and  _480
REMARK  187  A    between atoms: _480  and  _481
REMARK  188  A    between atoms: _480  and  _483
REMARK  189  A    between atoms: _483  and  _484
REMARK  190  A    between atoms: _484  and  _485
REMARK  191  A    between atoms: _490  and  _492
REMARK  192  A    between atoms: _492  and  _493
REMARK  193  A    between atoms: _492  and  _495
REMARK  194  A    between atoms: _495  and  _496
REMARK  195  A    between atoms: _499  and  _501
REMARK  196  A    between atoms: _501  and  _502
REMARK  197  A    between atoms: _501  and  _504
REMARK  198  A    between atoms: _504  and  _505
REMARK  199  A    between atoms: _508  and  _510
REMARK  200  A    between atoms: _510  and  _511
REMARK  201  A    between atoms: _514  and  _516
REMARK  202  A    between atoms: _516  and  _517
REMARK  203  A    between atoms: _516  and  _519
REMARK  204  A    between atoms: _519  and  _520
REMARK  205  A    between atoms: _523  and  _525
REMARK  206  A    between atoms: _525  and  _526
REMARK  207  A    between atoms: _525  and  _528
REMARK  208  A    between atoms: _531  and  _533
REMARK  209  A    between atoms: _533  and  _534
REMARK  210  A    between atoms: _536  and  _538
REMARK  211  A    between atoms: _538  and  _539
REMARK  212  A    between atoms: _538  and  _541
REMARK  213  A    between atoms: _541  and  _542
REMARK  214  A    between atoms: _544  and  _546
REMARK  215  A    between atoms: _546  and  _547
REMARK  216  A    between atoms: _546  and  _549
REMARK  217  A    between atoms: _549  and  _550
REMARK  218  A    between atoms: _556  and  _558
REMARK  219  A    between atoms: _558  and  _559
REMARK  220  A    between atoms: _558  and  _561
REMARK  221  A    between atoms: _561  and  _562
REMARK  222  A    between atoms: _565  and  _567
REMARK  223  A    between atoms: _567  and  _568
REMARK  224  A    between atoms: _570  and  _572
REMARK  225  A    between atoms: _572  and  _573
REMARK  226  A    between atoms: _575  and  _577
REMARK  227  A    between atoms: _577  and  _578
REMARK  228  A    between atoms: _577  and  _580
REMARK  229  A    between atoms: _580  and  _581
REMARK  230  A    between atoms: _586  and  _587
REMARK  231  A    between atoms: _589  and  _591
REMARK  232  A    between atoms: _591  and  _592
REMARK  233  A    between atoms: _594  and  _596
REMARK  234  A    between atoms: _596  and  _597
REMARK  235  A    between atoms: _596  and  _599
REMARK  236  A    between atoms: _599  and  _600
REMARK  237  A    between atoms: _606  and  _608
REMARK  238  A    between atoms: _608  and  _609
REMARK  239  A    between atoms: _608  and  _611
REMARK  240  A    between atoms: _611  and  _612
REMARK  241  A    between atoms: _615  and  _617
REMARK  242  A    between atoms: _617  and  _618
REMARK  243  A    between atoms: _617  and  _620
REMARK  244  A    between atoms: _620  and  _621
REMARK  245  A    between atoms: _621  and  _622
REMARK  246  A    between atoms: _627  and  _629
REMARK  247  A    between atoms: _629  and  _630
REMARK  248  A    between atoms: _633  and  _635
REMARK  249  A    between atoms: _635  and  _636
REMARK  250  A    between atoms: _638  and  _640
REMARK  251  A    between atoms: _640  and  _641
REMARK  252  A    between atoms: _640  and  _643
REMARK  253  A    between atoms: _643  and  _644
REMARK  254  A    between atoms: _644  and  _645
REMARK  255  A    between atoms: _648  and  _650
REMARK  256  A    between atoms: _650  and  _651
REMARK  257  A    between atoms: _650  and  _653
REMARK  258  A    between atoms: _653  and  _654
REMARK  259  A    between atoms: _657  and  _659
REMARK  260  A    between atoms: _659  and  _660
REMARK  261  A    between atoms: _659  and  _662
REMARK  262  A    between atoms: _662  and  _663
REMARK  263  A    between atoms: _663  and  _664
REMARK  264  A    between atoms: _664  and  _665
REMARK  265  A    between atoms: _674  and  _676
REMARK  266  A    between atoms: _676  and  _677
REMARK  267  A    between atoms: _676  and  _679
REMARK  268  A    between atoms: _679  and  _680
REMARK  269  A    between atoms: _685  and  _686
REMARK  270  A    between atoms: _688  and  _690
REMARK  271  A    between atoms: _690  and  _691
REMARK  272  A    between atoms: _693  and  _695
REMARK  273  A    between atoms: _695  and  _696
REMARK  274  A    between atoms: _695  and  _698
REMARK  275  A    between atoms: _698  and  _699
REMARK  276  A    between atoms: _705  and  _707
REMARK  277  A    between atoms: _707  and  _708
REMARK  278  A    between atoms: _707  and  _710
REMARK  279  A    between atoms: _710  and  _711
REMARK  280  A    between atoms: _714  and  _716
REMARK  281  A    between atoms: _716  and  _717
REMARK  282  A    between atoms: _716  and  _719
REMARK  283  A    between atoms: _719  and  _720
REMARK  284  A    between atoms: _720  and  _721
REMARK  285  A    between atoms: _726  and  _728
REMARK  286  A    between atoms: _728  and  _729
REMARK  287  A    between atoms: _728  and  _731
REMARK  288  A    between atoms: _731  and  _732
REMARK  289  A    between atoms: _732  and  _733
REMARK  290  A    between atoms: _733  and  _734
REMARK  291  A    between atoms: _734  and  _735
REMARK                            x       y       z     vdW  Elec       q    Type
REMARK                         _______ _______ _______ _____ _____    ______ ____
ROOT
ATOM      1  O   HOH     1      37.274 -12.642 185.534  0.00  0.00    +0.000 OA
ENDROOT
TORSDOF 0
REMARK  Name = ../refined-set-2016/4qij/4qij_pocket.pdb
REMARK  291 active torsions:
REMARK  status: ('A' for Active; 'I' for Inactive)
REMARK    1  A    between atoms: _1  and  _3
REMARK    2  A    between atoms: _3  and  _4
REMARK    3  A    between atoms: _3  and  _6
REMARK    4  A    between atoms: _6  and  _7
REMARK    5  A    between atoms: _7  and  _8
REMARK    6  A    between atoms: _8  and  _9
REMARK    7  A    between atoms: _19  and  _20
REMARK    8  A    between atoms: _25  and  _27
REMARK    9  A    between atoms: _27  and  _28
REMARK   10  A    between atoms: _27  and  _30
REMARK   11  A    between atoms: _30  and  _31
REMARK   12  A    between atoms: _31  and  _32
REMARK   13  A    between atoms: _35  and  _37
REMARK   14  A    between atoms: _37  and  _38
REMARK   15  A    between atoms: _37  and  _40
REMARK   16  A    between atoms: _43  and  _45
REMARK   17  A    between atoms: _45  and  _46
REMARK   18  A    between atoms: _45  and  _48
REMARK   19  A    between atoms: _48  and  _49
REMARK   20  A    between atoms: _49  and  _50
REMARK   21  A    between atoms: _50  and  _51
REMARK   22  A    between atoms: _60  and  _62
REMARK   23  A    between atoms: _62  and  _63
REMARK   24  A    between atoms: _62  and  _65
REMARK   25  A    between atoms: _65  and  _66
REMARK   26  A    between atoms: _71  and  _73
REMARK   27  A    between atoms: _73  and  _74
REMARK   28  A    between atoms: _77  and  _79
REMARK   29  A    between atoms: _79  and  _80
REMARK   30  A    between atoms: _79  and  _82
REMARK   31  A    between atoms: _82  and  _83
REMARK   32  A    between atoms: _89  and  _91
REMARK   33  A    between atoms: _91  and  _92
REMARK   34  A    between atoms: _91  and  _94
REMARK   35  A    between atoms: _97  and  _99
REMARK   36  A    between atoms: _99  and  _100
REMARK   37  A    between atoms: _99  and  _102
REMARK   38  A    between atoms: _102  and  _103
REMARK   39  A    between atoms: _105  and  _107
REMARK   40  A    between atoms: _107  and  _108
REMARK   41  A    between atoms: _107  and  _110
REMARK   42  A    between atoms: _110  and  _111
REMARK   43  A    between atoms: _111  and  _112
REMARK   44  A    between atoms: _112  and  _113
REMARK   45  A    between atoms: _113  and  _114
REMARK   46  A    between atoms: _118  and  _120
REMARK   47  A    between atoms: _120  and  _121
REMARK   48  A    between atoms: _120  and  _123
REMARK   49  A    between atoms: _123  and  _124
REMARK   50  A    between atoms: _127  and  _129
REMARK   51  A    between atoms: _129  and  _130
REMARK   52  A    between atoms: _132  and  _134
REMARK   53  A    between atoms: _134  and  _135
REMARK   54  A    between atoms: _134  and  _137
REMARK   55  A    between atoms: _137  and  _138
REMARK   56  A    between atoms: _148  and  _150
REMARK   57  A    between atoms: _150  and  _151
REMARK   58  A    between atoms: _154  and  _156
REMARK   59  A    between atoms: _156  and  _157
REMARK   60  A    between atoms: _156  and  _159
REMARK   61  A    between atoms: _159  and  _160
REMARK   62  A    between atoms: _166  and  _168
REMARK   63  A    between atoms: _168  and  _169
REMARK   64  A    between atoms: _168  and  _171
REMARK   65  A    between atoms: _173  and  _175
REMARK   66  A    between atoms: _175  and  _176
REMARK   67  A    between atoms: _175  and  _178
REMARK   68  A    between atoms: _178  and  _179
REMARK   69  A    between atoms: _181  and  _183
REMARK   70  A    between atoms: _183  and  _184
REMARK   71  A    between atoms: _186  and  _188
REMARK   72  A    between atoms: _188  and  _189
REMARK   73  A    between atoms: _191  and  _193
REMARK   74  A    between atoms: _193  and  _194
REMARK   75  A    between atoms: _193  and  _196
REMARK   76  A    between atoms: _196  and  _197
REMARK   77  A    between atoms: _200  and  _202
REMARK   78  A    between atoms: _202  and  _203
REMARK   79  A    between atoms: _202  and  _205
REMARK   80  A    between atoms: _205  and  _206
REMARK   81  A    between atoms: _206  and  _207
REMARK   82  A    between atoms: _212  and  _214
REMARK   83  A    between atoms: _214  and  _215
REMARK   84  A    between atoms: _214  and  _217
REMARK   85  A    between atoms: _217  and  _218
REMARK   86  A    between atoms: _218  and  _219
REMARK   87  A    between atoms: _219  and  _220
REMARK   88  A    between atoms: _229  and  _231
REMARK   89  A    between atoms: _231  and  _232
REMARK   90  A    between atoms: _231  and  _234
REMARK   91  A    between atoms: _234  and  _235
REMARK   92  A    between atoms: _238  and  _240
REMARK   93  A    between atoms: _240  and  _241
REMARK   94  A    between atoms: _240  and  _243
REMARK   95  A    between atoms: _243  and  _244
REMARK   96  A    between atoms: _244  and  _245
REMARK   97  A    between atoms: _245  and  _246
REMARK   98  A    between atoms: _255  and  _257
REMARK   99  A    between atoms: _257  and  _258
REMARK  100  A    between atoms: _260  and  _262
REMARK  101  A    between atoms: _262  and  _263
REMARK  102  A    between atoms: _262  and  _265
REMARK  103  A    between atoms: _265  and  _266
REMARK  104  A    between atoms: _271  and  _272
REMARK  105  A    between atoms: _274  and  _276
REMARK  106  A    between atoms: _276  and  _277
REMARK  107  A    between atoms: _276  and  _279
REMARK  108  A    between atoms: _279  and  _280
REMARK  109  A    between atoms: _283  and  _285
REMARK  110  A    between atoms: _285  and  _286
REMARK  111  A    between atoms: _285  and  _288
REMARK  112  A    between atoms: _288  and  _289
REMARK  113  A    between atoms: _289  and  _290
REMARK  114  A    between atoms: _290  and  _291
REMARK  115  A    between atoms: _300  and  _302
REMARK  116  A    between atoms: _302  and  _303
REMARK  117  A    between atoms: _302  and  _305
REMARK  118  A    between atoms: _305  and  _306
REMARK  119  A    between atoms: _309  and  _311
REMARK  120  A    between atoms: _311  and  _312
REMARK  121  A    between atoms: _311  and  _314
REMARK  122  A    between atoms: _314  and  _315
REMARK  123  A    between atoms: _320  and  _322
REMARK  124  A    between atoms: _322  and  _323
REMARK  125  A    between atoms: _322  and  _325
REMARK  126  A    between atoms: _325  and  _326
REMARK  127  A    between atoms: _329  and  _331
REMARK  128  A    between atoms: _331  and  _332
REMARK  129  A    between atoms: _331  and  _334
REMARK  130  A    between atoms: _334  and  _335
REMARK  131  A    between atoms: _338  and  _340
REMARK  132  A    between atoms: _340  and  _341
REMARK  133  A    between atoms: _340  and  _343
REMARK  134  A    between atoms: _343  and  _344
REMARK  135  A    between atoms: _344  and  _345
REMARK  136  A    between atoms: _348  and  _350
REMARK  137  A    between atoms: _350  and  _351
REMARK  138  A    between atoms: _350  and  _353
REMARK  139  A    between atoms: _353  and  _354
REMARK  140  A    between atoms: _354  and  _355
REMARK  141  A    between atoms: _360  and  _362
REMARK  142  A    between atoms: _362  and  _363
REMARK  143  A    between atoms: _365  and  _367
REMARK  144  A    between atoms: _367  and  _368
REMARK  145  A    between atoms: _367  and  _370
REMARK  146  A    between atoms: _370  and  _371
REMARK  147  A    between atoms: _381  and  _383
REMARK  148  A    between atoms: _383  and  _384
REMARK  149  A    between atoms: _387  and  _389
REMARK  150  A    between atoms: _389  and  _390
REMARK  151  A    between atoms: _393  and  _395
REMARK  152  A    between atoms: _395  and  _396
REMARK  153  A    between atoms: _398  and  _400
REMARK  154  A    between atoms: _400  and  _401
REMARK  155  A    between atoms: _403  and  _405
REMARK  156  A    between atoms: _405  and  _406
REMARK  157  A    between atoms: _408  and  _410
REMARK  158  A    between atoms: _410  and  _411
REMARK  159  A    between atoms: _410  and  _413
REMARK  160  A    between atoms: _413  and  _414
REMARK  161  A    between atoms: _419  and  _421
REMARK  162  A    between atoms: _421  and  _422
REMARK  163  A    between atoms: _421  and  _424
REMARK  164  A    between atoms: _424  and  _425
REMARK  165  A    between atoms: _427  and  _429
REMARK  166  A    between atoms: _429  and  _430
REMARK  167  A    between atoms: _429  and  _432
REMARK  168  A    between atoms: _432  and  _433
REMARK  169  A    between atoms: _436  and  _438
REMARK  170  A    between atoms: _438  and  _439
REMARK  171  A    between atoms: _438  and  _441
REMARK  172  A    between atoms: _441  and  _442
REMARK  173  A    between atoms: _442  and  _443
REMARK  174  A    between atoms: _443  and  _444
REMARK  175  A    between atoms: _453  and  _455
REMARK  176  A    between atoms: _455  and  _456
REMARK  177  A    between atoms: _455  and  _458
REMARK  178  A    between atoms: _458  and  _459
REMARK  179  A    between atoms: _465  and  _467
REMARK  180  A    between atoms: _467  and  _468
REMARK  181  A    between atoms: _467  and  _470
REMARK  182  A    between atoms: _470  and  _471
REMARK  183  A    between atoms: _471  and  _472
REMARK  184  A    between atoms: _472  and  _473
REMARK  185  A    between atoms: _473  and  _474
REMARK  186  A    between atoms: _478  and  _480
REMARK  187  A    between atoms: _480  and  _481
REMARK  188  A    between atoms: _480  and  _483
REMARK  189  A    between atoms: _483  and  _484
REMARK  190  A    between atoms: _484  and  _485
REMARK  191  A    between atoms: _490  and  _492
REMARK  192  A    between atoms: _492  and  _493
REMARK  193  A    between atoms: _492  and  _495
REMARK  194  A    between atoms: _495  and  _496
REMARK  195  A    between atoms: _499  and  _501
REMARK  196  A    between atoms: _501  and  _502
REMARK  197  A    between atoms: _501  and  _504
REMARK  198  A    between atoms: _504  and  _505
REMARK  199  A    between atoms: _508  and  _510
REMARK  200  A    between atoms: _510  and  _511
REMARK  201  A    between atoms: _514  and  _516
REMARK  202  A    between atoms: _516  and  _517
REMARK  203  A    between atoms: _516  and  _519
REMARK  204  A    between atoms: _519  and  _520
REMARK  205  A    between atoms: _523  and  _525
REMARK  206  A    between atoms: _525  and  _526
REMARK  207  A    between atoms: _525  and  _528
REMARK  208  A    between atoms: _531  and  _533
REMARK  209  A    between atoms: _533  and  _534
REMARK  210  A    between atoms: _536  and  _538
REMARK  211  A    between atoms: _538  and  _539
REMARK  212  A    between atoms: _538  and  _541
REMARK  213  A    between atoms: _541  and  _542
REMARK  214  A    between atoms: _544  and  _546
REMARK  215  A    between atoms: _546  and  _547
REMARK  216  A    between atoms: _546  and  _549
REMARK  217  A    between atoms: _549  and  _550
REMARK  218  A    between atoms: _556  and  _558
REMARK  219  A    between atoms: _558  and  _559
REMARK  220  A    between atoms: _558  and  _561
REMARK  221  A    between atoms: _561  and  _562
REMARK  222  A    between atoms: _565  and  _567
REMARK  223  A    between atoms: _567  and  _568
REMARK  224  A    between atoms: _570  and  _572
REMARK  225  A    between atoms: _572  and  _573
REMARK  226  A    between atoms: _575  and  _577
REMARK  227  A    between atoms: _577  and  _578
REMARK  228  A    between atoms: _577  and  _580
REMARK  229  A    between atoms: _580  and  _581
REMARK  230  A    between atoms: _586  and  _587
REMARK  231  A    between atoms: _589  and  _591
REMARK  232  A    between atoms: _591  and  _592
REMARK  233  A    between atoms: _594  and  _596
REMARK  234  A    between atoms: _596  and  _597
REMARK  235  A    between atoms: _596  and  _599
REMARK  236  A    between atoms: _599  and  _600
REMARK  237  A    between atoms: _606  and  _608
REMARK  238  A    between atoms: _608  and  _609
REMARK  239  A    between atoms: _608  and  _611
REMARK  240  A    between atoms: _611  and  _612
REMARK  241  A    between atoms: _615  and  _617
REMARK  242  A    between atoms: _617  and  _618
REMARK  243  A    between atoms: _617  and  _620
REMARK  244  A    between atoms: _620  and  _621
REMARK  245  A    between atoms: _621  and  _622
REMARK  246  A    between atoms: _627  and  _629
REMARK  247  A    between atoms: _629  and  _630
REMARK  248  A    between atoms: _633  and  _635
REMARK  249  A    between atoms: _635  and  _636
REMARK  250  A    between atoms: _638  and  _640
REMARK  251  A    between atoms: _640  and  _641
REMARK  252  A    between atoms: _640  and  _643
REMARK  253  A    between atoms: _643  and  _644
REMARK  254  A    between atoms: _644  and  _645
REMARK  255  A    between atoms: _648  and  _650
REMARK  256  A    between atoms: _650  and  _651
REMARK  257  A    between atoms: _650  and  _653
REMARK  258  A    between atoms: _653  and  _654
REMARK  259  A    between atoms: _657  and  _659
REMARK  260  A    between atoms: _659  and  _660
REMARK  261  A    between atoms: _659  and  _662
REMARK  262  A    between atoms: _662  and  _663
REMARK  263  A    between atoms: _663  and  _664
REMARK  264  A    between atoms: _664  and  _665
REMARK  265  A    between atoms: _674  and  _676
REMARK  266  A    between atoms: _676  and  _677
REMARK  267  A    between atoms: _676  and  _679
REMARK  268  A    between atoms: _679  and  _680
REMARK  269  A    between atoms: _685  and  _686
REMARK  270  A    between atoms: _688  and  _690
REMARK  271  A    between atoms: _690  and  _691
REMARK  272  A    between atoms: _693  and  _695
REMARK  273  A    between atoms: _695  and  _696
REMARK  274  A    between atoms: _695  and  _698
REMARK  275  A    between atoms: _698  and  _699
REMARK  276  A    between atoms: _705  and  _707
REMARK  277  A    between atoms: _707  and  _708
REMARK  278  A    between atoms: _707  and  _710
REMARK  279  A    between atoms: _710  and  _711
REMARK  280  A    between atoms: _714  and  _716
REMARK  281  A    between atoms: _716  and  _717
REMARK  282  A    between atoms: _716  and  _719
REMARK  283  A    between atoms: _719  and  _720
REMARK  284  A    between atoms: _720  and  _721
REMARK  285  A    between atoms: _726  and  _728
REMARK  286  A    between atoms: _728  and  _729
REMARK  287  A    between atoms: _728  and  _731
REMARK  288  A    between atoms: _731  and  _732
REMARK  289  A    between atoms: _732  and  _733
REMARK  290  A    between atoms: _733  and  _734
REMARK  291  A    between atoms: _734  and  _735
REMARK                            x       y       z     vdW  Elec       q    Type
REMARK                         _______ _______ _______ _____ _____    ______ ____
ROOT
ATOM      1  O   HOH     1      23.671 -16.174 199.487  0.00  0.00    +0.000 OA
ENDROOT
TORSDOF 0
REMARK  Name = ../refined-set-2016/4qij/4qij_pocket.pdb
REMARK  291 active torsions:
REMARK  status: ('A' for Active; 'I' for Inactive)
REMARK    1  A    between atoms: _1  and  _3
REMARK    2  A    between atoms: _3  and  _4
REMARK    3  A    between atoms: _3  and  _6
REMARK    4  A    between atoms: _6  and  _7
REMARK    5  A    between atoms: _7  and  _8
REMARK    6  A    between atoms: _8  and  _9
REMARK    7  A    between atoms: _19  and  _20
REMARK    8  A    between atoms: _25  and  _27
REMARK    9  A    between atoms: _27  and  _28
REMARK   10  A    between atoms: _27  and  _30
REMARK   11  A    between atoms: _30  and  _31
REMARK   12  A    between atoms: _31  and  _32
REMARK   13  A    between atoms: _35  and  _37
REMARK   14  A    between atoms: _37  and  _38
REMARK   15  A    between atoms: _37  and  _40
REMARK   16  A    between atoms: _43  and  _45
REMARK   17  A    between atoms: _45  and  _46
REMARK   18  A    between atoms: _45  and  _48
REMARK   19  A    between atoms: _48  and  _49
REMARK   20  A    between atoms: _49  and  _50
REMARK   21  A    between atoms: _50  and  _51
REMARK   22  A    between atoms: _60  and  _62
REMARK   23  A    between atoms: _62  and  _63
REMARK   24  A    between atoms: _62  and  _65
REMARK   25  A    between atoms: _65  and  _66
REMARK   26  A    between atoms: _71  and  _73
REMARK   27  A    between atoms: _73  and  _74
REMARK   28  A    between atoms: _77  and  _79
REMARK   29  A    between atoms: _79  and  _80
REMARK   30  A    between atoms: _79  and  _82
REMARK   31  A    between atoms: _82  and  _83
REMARK   32  A    between atoms: _89  and  _91
REMARK   33  A    between atoms: _91  and  _92
REMARK   34  A    between atoms: _91  and  _94
REMARK   35  A    between atoms: _97  and  _99
REMARK   36  A    between atoms: _99  and  _100
REMARK   37  A    between atoms: _99  and  _102
REMARK   38  A    between atoms: _102  and  _103
REMARK   39  A    between atoms: _105  and  _107
REMARK   40  A    between atoms: _107  and  _108
REMARK   41  A    between atoms: _107  and  _110
REMARK   42  A    between atoms: _110  and  _111
REMARK   43  A    between atoms: _111  and  _112
REMARK   44  A    between atoms: _112  and  _113
REMARK   45  A    between atoms: _113  and  _114
REMARK   46  A    between atoms: _118  and  _120
REMARK   47  A    between atoms: _120  and  _121
REMARK   48  A    between atoms: _120  and  _123
REMARK   49  A    between atoms: _123  and  _124
REMARK   50  A    between atoms: _127  and  _129
REMARK   51  A    between atoms: _129  and  _130
REMARK   52  A    between atoms: _132  and  _134
REMARK   53  A    between atoms: _134  and  _135
REMARK   54  A    between atoms: _134  and  _137
REMARK   55  A    between atoms: _137  and  _138
REMARK   56  A    between atoms: _148  and  _150
REMARK   57  A    between atoms: _150  and  _151
REMARK   58  A    between atoms: _154  and  _156
REMARK   59  A    between atoms: _156  and  _157
REMARK   60  A    between atoms: _156  and  _159
REMARK   61  A    between atoms: _159  and  _160
REMARK   62  A    between atoms: _166  and  _168
REMARK   63  A    between atoms: _168  and  _169
REMARK   64  A    between atoms: _168  and  _171
REMARK   65  A    between atoms: _173  and  _175
REMARK   66  A    between atoms: _175  and  _176
REMARK   67  A    between atoms: _175  and  _178
REMARK   68  A    between atoms: _178  and  _179
REMARK   69  A    between atoms: _181  and  _183
REMARK   70  A    between atoms: _183  and  _184
REMARK   71  A    between atoms: _186  and  _188
REMARK   72  A    between atoms: _188  and  _189
REMARK   73  A    between atoms: _191  and  _193
REMARK   74  A    between atoms: _193  and  _194
REMARK   75  A    between atoms: _193  and  _196
REMARK   76  A    between atoms: _196  and  _197
REMARK   77  A    between atoms: _200  and  _202
REMARK   78  A    between atoms: _202  and  _203
REMARK   79  A    between atoms: _202  and  _205
REMARK   80  A    between atoms: _205  and  _206
REMARK   81  A    between atoms: _206  and  _207
REMARK   82  A    between atoms: _212  and  _214
REMARK   83  A    between atoms: _214  and  _215
REMARK   84  A    between atoms: _214  and  _217
REMARK   85  A    between atoms: _217  and  _218
REMARK   86  A    between atoms: _218  and  _219
REMARK   87  A    between atoms: _219  and  _220
REMARK   88  A    between atoms: _229  and  _231
REMARK   89  A    between atoms: _231  and  _232
REMARK   90  A    between atoms: _231  and  _234
REMARK   91  A    between atoms: _234  and  _235
REMARK   92  A    between atoms: _238  and  _240
REMARK   93  A    between atoms: _240  and  _241
REMARK   94  A    between atoms: _240  and  _243
REMARK   95  A    between atoms: _243  and  _244
REMARK   96  A    between atoms: _244  and  _245
REMARK   97  A    between atoms: _245  and  _246
REMARK   98  A    between atoms: _255  and  _257
REMARK   99  A    between atoms: _257  and  _258
REMARK  100  A    between atoms: _260  and  _262
REMARK  101  A    between atoms: _262  and  _263
REMARK  102  A    between atoms: _262  and  _265
REMARK  103  A    between atoms: _265  and  _266
REMARK  104  A    between atoms: _271  and  _272
REMARK  105  A    between atoms: _274  and  _276
REMARK  106  A    between atoms: _276  and  _277
REMARK  107  A    between atoms: _276  and  _279
REMARK  108  A    between atoms: _279  and  _280
REMARK  109  A    between atoms: _283  and  _285
REMARK  110  A    between atoms: _285  and  _286
REMARK  111  A    between atoms: _285  and  _288
REMARK  112  A    between atoms: _288  and  _289
REMARK  113  A    between atoms: _289  and  _290
REMARK  114  A    between atoms: _290  and  _291
REMARK  115  A    between atoms: _300  and  _302
REMARK  116  A    between atoms: _302  and  _303
REMARK  117  A    between atoms: _302  and  _305
REMARK  118  A    between atoms: _305  and  _306
REMARK  119  A    between atoms: _309  and  _311
REMARK  120  A    between atoms: _311  and  _312
REMARK  121  A    between atoms: _311  and  _314
REMARK  122  A    between atoms: _314  and  _315
REMARK  123  A    between atoms: _320  and  _322
REMARK  124  A    between atoms: _322  and  _323
REMARK  125  A    between atoms: _322  and  _325
REMARK  126  A    between atoms: _325  and  _326
REMARK  127  A    between atoms: _329  and  _331
REMARK  128  A    between atoms: _331  and  _332
REMARK  129  A    between atoms: _331  and  _334
REMARK  130  A    between atoms: _334  and  _335
REMARK  131  A    between atoms: _338  and  _340
REMARK  132  A    between atoms: _340  and  _341
REMARK  133  A    between atoms: _340  and  _343
REMARK  134  A    between atoms: _343  and  _344
REMARK  135  A    between atoms: _344  and  _345
REMARK  136  A    between atoms: _348  and  _350
REMARK  137  A    between atoms: _350  and  _351
REMARK  138  A    between atoms: _350  and  _353
REMARK  139  A    between atoms: _353  and  _354
REMARK  140  A    between atoms: _354  and  _355
REMARK  141  A    between atoms: _360  and  _362
REMARK  142  A    between atoms: _362  and  _363
REMARK  143  A    between atoms: _365  and  _367
REMARK  144  A    between atoms: _367  and  _368
REMARK  145  A    between atoms: _367  and  _370
REMARK  146  A    between atoms: _370  and  _371
REMARK  147  A    between atoms: _381  and  _383
REMARK  148  A    between atoms: _383  and  _384
REMARK  149  A    between atoms: _387  and  _389
REMARK  150  A    between atoms: _389  and  _390
REMARK  151  A    between atoms: _393  and  _395
REMARK  152  A    between atoms: _395  and  _396
REMARK  153  A    between atoms: _398  and  _400
REMARK  154  A    between atoms: _400  and  _401
REMARK  155  A    between atoms: _403  and  _405
REMARK  156  A    between atoms: _405  and  _406
REMARK  157  A    between atoms: _408  and  _410
REMARK  158  A    between atoms: _410  and  _411
REMARK  159  A    between atoms: _410  and  _413
REMARK  160  A    between atoms: _413  and  _414
REMARK  161  A    between atoms: _419  and  _421
REMARK  162  A    between atoms: _421  and  _422
REMARK  163  A    between atoms: _421  and  _424
REMARK  164  A    between atoms: _424  and  _425
REMARK  165  A    between atoms: _427  and  _429
REMARK  166  A    between atoms: _429  and  _430
REMARK  167  A    between atoms: _429  and  _432
REMARK  168  A    between atoms: _432  and  _433
REMARK  169  A    between atoms: _436  and  _438
REMARK  170  A    between atoms: _438  and  _439
REMARK  171  A    between atoms: _438  and  _441
REMARK  172  A    between atoms: _441  and  _442
REMARK  173  A    between atoms: _442  and  _443
REMARK  174  A    between atoms: _443  and  _444
REMARK  175  A    between atoms: _453  and  _455
REMARK  176  A    between atoms: _455  and  _456
REMARK  177  A    between atoms: _455  and  _458
REMARK  178  A    between atoms: _458  and  _459
REMARK  179  A    between atoms: _465  and  _467
REMARK  180  A    between atoms: _467  and  _468
REMARK  181  A    between atoms: _467  and  _470
REMARK  182  A    between atoms: _470  and  _471
REMARK  183  A    between atoms: _471  and  _472
REMARK  184  A    between atoms: _472  and  _473
REMARK  185  A    between atoms: _473  and  _474
REMARK  186  A    between atoms: _478  and  _480
REMARK  187  A    between atoms: _480  and  _481
REMARK  188  A    between atoms: _480  and  _483
REMARK  189  A    between atoms: _483  and  _484
REMARK  190  A    between atoms: _484  and  _485
REMARK  191  A    between atoms: _490  and  _492
REMARK  192  A    between atoms: _492  and  _493
REMARK  193  A    between atoms: _492  and  _495
REMARK  194  A    between atoms: _495  and  _496
REMARK  195  A    between atoms: _499  and  _501
REMARK  196  A    between atoms: _501  and  _502
REMARK  197  A    between atoms: _501  and  _504
REMARK  198  A    between atoms: _504  and  _505
REMARK  199  A    between atoms: _508  and  _510
REMARK  200  A    between atoms: _510  and  _511
REMARK  201  A    between atoms: _514  and  _516
REMARK  202  A    between atoms: _516  and  _517
REMARK  203  A    between atoms: _516  and  _519
REMARK  204  A    between atoms: _519  and  _520
REMARK  205  A    between atoms: _523  and  _525
REMARK  206  A    between atoms: _525  and  _526
REMARK  207  A    between atoms: _525  and  _528
REMARK  208  A    between atoms: _531  and  _533
REMARK  209  A    between atoms: _533  and  _534
REMARK  210  A    between atoms: _536  and  _538
REMARK  211  A    between atoms: _538  and  _539
REMARK  212  A    between atoms: _538  and  _541
REMARK  213  A    between atoms: _541  and  _542
REMARK  214  A    between atoms: _544  and  _546
REMARK  215  A    between atoms: _546  and  _547
REMARK  216  A    between atoms: _546  and  _549
REMARK  217  A    between atoms: _549  and  _550
REMARK  218  A    between atoms: _556  and  _558
REMARK  219  A    between atoms: _558  and  _559
REMARK  220  A    between atoms: _558  and  _561
REMARK  221  A    between atoms: _561  and  _562
REMARK  222  A    between atoms: _565  and  _567
REMARK  223  A    between atoms: _567  and  _568
REMARK  224  A    between atoms: _570  and  _572
REMARK  225  A    between atoms: _572  and  _573
REMARK  226  A    between atoms: _575  and  _577
REMARK  227  A    between atoms: _577  and  _578
REMARK  228  A    between atoms: _577  and  _580
REMARK  229  A    between atoms: _580  and  _581
REMARK  230  A    between atoms: _586  and  _587
REMARK  231  A    between atoms: _589  and  _591
REMARK  232  A    between atoms: _591  and  _592
REMARK  233  A    between atoms: _594  and  _596
REMARK  234  A    between atoms: _596  and  _597
REMARK  235  A    between atoms: _596  and  _599
REMARK  236  A    between atoms: _599  and  _600
REMARK  237  A    between atoms: _606  and  _608
REMARK  238  A    between atoms: _608  and  _609
REMARK  239  A    between atoms: _608  and  _611
REMARK  240  A    between atoms: _611  and  _612
REMARK  241  A    between atoms: _615  and  _617
REMARK  242  A    between atoms: _617  and  _618
REMARK  243  A    between atoms: _617  and  _620
REMARK  244  A    between atoms: _620  and  _621
REMARK  245  A    between atoms: _621  and  _622
REMARK  246  A    between atoms: _627  and  _629
REMARK  247  A    between atoms: _629  and  _630
REMARK  248  A    between atoms: _633  and  _635
REMARK  249  A    between atoms: _635  and  _636
REMARK  250  A    between atoms: _638  and  _640
REMARK  251  A    between atoms: _640  and  _641
REMARK  252  A    between atoms: _640  and  _643
REMARK  253  A    between atoms: _643  and  _644
REMARK  254  A    between atoms: _644  and  _645
REMARK  255  A    between atoms: _648  and  _650
REMARK  256  A    between atoms: _650  and  _651
REMARK  257  A    between atoms: _650  and  _653
REMARK  258  A    between atoms: _653  and  _654
REMARK  259  A    between atoms: _657  and  _659
REMARK  260  A    between atoms: _659  and  _660
REMARK  261  A    between atoms: _659  and  _662
REMARK  262  A    between atoms: _662  and  _663
REMARK  263  A    between atoms: _663  and  _664
REMARK  264  A    between atoms: _664  and  _665
REMARK  265  A    between atoms: _674  and  _676
REMARK  266  A    between atoms: _676  and  _677
REMARK  267  A    between atoms: _676  and  _679
REMARK  268  A    between atoms: _679  and  _680
REMARK  269  A    between atoms: _685  and  _686
REMARK  270  A    between atoms: _688  and  _690
REMARK  271  A    between atoms: _690  and  _691
REMARK  272  A    between atoms: _693  and  _695
REMARK  273  A    between atoms: _695  and  _696
REMARK  274  A    between atoms: _695  and  _698
REMARK  275  A    between atoms: _698  and  _699
REMARK  276  A    between atoms: _705  and  _707
REMARK  277  A    between atoms: _707  and  _708
REMARK  278  A    between atoms: _707  and  _710
REMARK  279  A    between atoms: _710  and  _711
REMARK  280  A    between atoms: _714  and  _716
REMARK  281  A    between atoms: _716  and  _717
REMARK  282  A    between atoms: _716  and  _719
REMARK  283  A    between atoms: _719  and  _720
REMARK  284  A    between atoms: _720  and  _721
REMARK  285  A    between atoms: _726  and  _728
REMARK  286  A    between atoms: _728  and  _729
REMARK  287  A    between atoms: _728  and  _731
REMARK  288  A    between atoms: _731  and  _732
REMARK  289  A    between atoms: _732  and  _733
REMARK  290  A    between atoms: _733  and  _734
REMARK  291  A    between atoms: _734  and  _735
REMARK                            x       y       z     vdW  Elec       q    Type
REMARK                         _______ _______ _______ _____ _____    ______ ____
ROOT
ATOM      1  O   HOH     1      25.695  -9.765 182.861  0.00  0.00    +0.000 OA
ENDROOT
TORSDOF 0
REMARK  Name = ../refined-set-2016/4qij/4qij_pocket.pdb
REMARK  291 active torsions:
REMARK  status: ('A' for Active; 'I' for Inactive)
REMARK    1  A    between atoms: _1  and  _3
REMARK    2  A    between atoms: _3  and  _4
REMARK    3  A    between atoms: _3  and  _6
REMARK    4  A    between atoms: _6  and  _7
REMARK    5  A    between atoms: _7  and  _8
REMARK    6  A    between atoms: _8  and  _9
REMARK    7  A    between atoms: _19  and  _20
REMARK    8  A    between atoms: _25  and  _27
REMARK    9  A    between atoms: _27  and  _28
REMARK   10  A    between atoms: _27  and  _30
REMARK   11  A    between atoms: _30  and  _31
REMARK   12  A    between atoms: _31  and  _32
REMARK   13  A    between atoms: _35  and  _37
REMARK   14  A    between atoms: _37  and  _38
REMARK   15  A    between atoms: _37  and  _40
REMARK   16  A    between atoms: _43  and  _45
REMARK   17  A    between atoms: _45  and  _46
REMARK   18  A    between atoms: _45  and  _48
REMARK   19  A    between atoms: _48  and  _49
REMARK   20  A    between atoms: _49  and  _50
REMARK   21  A    between atoms: _50  and  _51
REMARK   22  A    between atoms: _60  and  _62
REMARK   23  A    between atoms: _62  and  _63
REMARK   24  A    between atoms: _62  and  _65
REMARK   25  A    between atoms: _65  and  _66
REMARK   26  A    between atoms: _71  and  _73
REMARK   27  A    between atoms: _73  and  _74
REMARK   28  A    between atoms: _77  and  _79
REMARK   29  A    between atoms: _79  and  _80
REMARK   30  A    between atoms: _79  and  _82
REMARK   31  A    between atoms: _82  and  _83
REMARK   32  A    between atoms: _89  and  _91
REMARK   33  A    between atoms: _91  and  _92
REMARK   34  A    between atoms: _91  and  _94
REMARK   35  A    between atoms: _97  and  _99
REMARK   36  A    between atoms: _99  and  _100
REMARK   37  A    between atoms: _99  and  _102
REMARK   38  A    between atoms: _102  and  _103
REMARK   39  A    between atoms: _105  and  _107
REMARK   40  A    between atoms: _107  and  _108
REMARK   41  A    between atoms: _107  and  _110
REMARK   42  A    between atoms: _110  and  _111
REMARK   43  A    between atoms: _111  and  _112
REMARK   44  A    between atoms: _112  and  _113
REMARK   45  A    between atoms: _113  and  _114
REMARK   46  A    between atoms: _118  and  _120
REMARK   47  A    between atoms: _120  and  _121
REMARK   48  A    between atoms: _120  and  _123
REMARK   49  A    between atoms: _123  and  _124
REMARK   50  A    between atoms: _127  and  _129
REMARK   51  A    between atoms: _129  and  _130
REMARK   52  A    between atoms: _132  and  _134
REMARK   53  A    between atoms: _134  and  _135
REMARK   54  A    between atoms: _134  and  _137
REMARK   55  A    between atoms: _137  and  _138
REMARK   56  A    between atoms: _148  and  _150
REMARK   57  A    between atoms: _150  and  _151
REMARK   58  A    between atoms: _154  and  _156
REMARK   59  A    between atoms: _156  and  _157
REMARK   60  A    between atoms: _156  and  _159
REMARK   61  A    between atoms: _159  and  _160
REMARK   62  A    between atoms: _166  and  _168
REMARK   63  A    between atoms: _168  and  _169
REMARK   64  A    between atoms: _168  and  _171
REMARK   65  A    between atoms: _173  and  _175
REMARK   66  A    between atoms: _175  and  _176
REMARK   67  A    between atoms: _175  and  _178
REMARK   68  A    between atoms: _178  and  _179
REMARK   69  A    between atoms: _181  and  _183
REMARK   70  A    between atoms: _183  and  _184
REMARK   71  A    between atoms: _186  and  _188
REMARK   72  A    between atoms: _188  and  _189
REMARK   73  A    between atoms: _191  and  _193
REMARK   74  A    between atoms: _193  and  _194
REMARK   75  A    between atoms: _193  and  _196
REMARK   76  A    between atoms: _196  and  _197
REMARK   77  A    between atoms: _200  and  _202
REMARK   78  A    between atoms: _202  and  _203
REMARK   79  A    between atoms: _202  and  _205
REMARK   80  A    between atoms: _205  and  _206
REMARK   81  A    between atoms: _206  and  _207
REMARK   82  A    between atoms: _212  and  _214
REMARK   83  A    between atoms: _214  and  _215
REMARK   84  A    between atoms: _214  and  _217
REMARK   85  A    between atoms: _217  and  _218
REMARK   86  A    between atoms: _218  and  _219
REMARK   87  A    between atoms: _219  and  _220
REMARK   88  A    between atoms: _229  and  _231
REMARK   89  A    between atoms: _231  and  _232
REMARK   90  A    between atoms: _231  and  _234
REMARK   91  A    between atoms: _234  and  _235
REMARK   92  A    between atoms: _238  and  _240
REMARK   93  A    between atoms: _240  and  _241
REMARK   94  A    between atoms: _240  and  _243
REMARK   95  A    between atoms: _243  and  _244
REMARK   96  A    between atoms: _244  and  _245
REMARK   97  A    between atoms: _245  and  _246
REMARK   98  A    between atoms: _255  and  _257
REMARK   99  A    between atoms: _257  and  _258
REMARK  100  A    between atoms: _260  and  _262
REMARK  101  A    between atoms: _262  and  _263
REMARK  102  A    between atoms: _262  and  _265
REMARK  103  A    between atoms: _265  and  _266
REMARK  104  A    between atoms: _271  and  _272
REMARK  105  A    between atoms: _274  and  _276
REMARK  106  A    between atoms: _276  and  _277
REMARK  107  A    between atoms: _276  and  _279
REMARK  108  A    between atoms: _279  and  _280
REMARK  109  A    between atoms: _283  and  _285
REMARK  110  A    between atoms: _285  and  _286
REMARK  111  A    between atoms: _285  and  _288
REMARK  112  A    between atoms: _288  and  _289
REMARK  113  A    between atoms: _289  and  _290
REMARK  114  A    between atoms: _290  and  _291
REMARK  115  A    between atoms: _300  and  _302
REMARK  116  A    between atoms: _302  and  _303
REMARK  117  A    between atoms: _302  and  _305
REMARK  118  A    between atoms: _305  and  _306
REMARK  119  A    between atoms: _309  and  _311
REMARK  120  A    between atoms: _311  and  _312
REMARK  121  A    between atoms: _311  and  _314
REMARK  122  A    between atoms: _314  and  _315
REMARK  123  A    between atoms: _320  and  _322
REMARK  124  A    between atoms: _322  and  _323
REMARK  125  A    between atoms: _322  and  _325
REMARK  126  A    between atoms: _325  and  _326
REMARK  127  A    between atoms: _329  and  _331
REMARK  128  A    between atoms: _331  and  _332
REMARK  129  A    between atoms: _331  and  _334
REMARK  130  A    between atoms: _334  and  _335
REMARK  131  A    between atoms: _338  and  _340
REMARK  132  A    between atoms: _340  and  _341
REMARK  133  A    between atoms: _340  and  _343
REMARK  134  A    between atoms: _343  and  _344
REMARK  135  A    between atoms: _344  and  _345
REMARK  136  A    between atoms: _348  and  _350
REMARK  137  A    between atoms: _350  and  _351
REMARK  138  A    between atoms: _350  and  _353
REMARK  139  A    between atoms: _353  and  _354
REMARK  140  A    between atoms: _354  and  _355
REMARK  141  A    between atoms: _360  and  _362
REMARK  142  A    between atoms: _362  and  _363
REMARK  143  A    between atoms: _365  and  _367
REMARK  144  A    between atoms: _367  and  _368
REMARK  145  A    between atoms: _367  and  _370
REMARK  146  A    between atoms: _370  and  _371
REMARK  147  A    between atoms: _381  and  _383
REMARK  148  A    between atoms: _383  and  _384
REMARK  149  A    between atoms: _387  and  _389
REMARK  150  A    between atoms: _389  and  _390
REMARK  151  A    between atoms: _393  and  _395
REMARK  152  A    between atoms: _395  and  _396
REMARK  153  A    between atoms: _398  and  _400
REMARK  154  A    between atoms: _400  and  _401
REMARK  155  A    between atoms: _403  and  _405
REMARK  156  A    between atoms: _405  and  _406
REMARK  157  A    between atoms: _408  and  _410
REMARK  158  A    between atoms: _410  and  _411
REMARK  159  A    between atoms: _410  and  _413
REMARK  160  A    between atoms: _413  and  _414
REMARK  161  A    between atoms: _419  and  _421
REMARK  162  A    between atoms: _421  and  _422
REMARK  163  A    between atoms: _421  and  _424
REMARK  164  A    between atoms: _424  and  _425
REMARK  165  A    between atoms: _427  and  _429
REMARK  166  A    between atoms: _429  and  _430
REMARK  167  A    between atoms: _429  and  _432
REMARK  168  A    between atoms: _432  and  _433
REMARK  169  A    between atoms: _436  and  _438
REMARK  170  A    between atoms: _438  and  _439
REMARK  171  A    between atoms: _438  and  _441
REMARK  172  A    between atoms: _441  and  _442
REMARK  173  A    between atoms: _442  and  _443
REMARK  174  A    between atoms: _443  and  _444
REMARK  175  A    between atoms: _453  and  _455
REMARK  176  A    between atoms: _455  and  _456
REMARK  177  A    between atoms: _455  and  _458
REMARK  178  A    between atoms: _458  and  _459
REMARK  179  A    between atoms: _465  and  _467
REMARK  180  A    between atoms: _467  and  _468
REMARK  181  A    between atoms: _467  and  _470
REMARK  182  A    between atoms: _470  and  _471
REMARK  183  A    between atoms: _471  and  _472
REMARK  184  A    between atoms: _472  and  _473
REMARK  185  A    between atoms: _473  and  _474
REMARK  186  A    between atoms: _478  and  _480
REMARK  187  A    between atoms: _480  and  _481
REMARK  188  A    between atoms: _480  and  _483
REMARK  189  A    between atoms: _483  and  _484
REMARK  190  A    between atoms: _484  and  _485
REMARK  191  A    between atoms: _490  and  _492
REMARK  192  A    between atoms: _492  and  _493
REMARK  193  A    between atoms: _492  and  _495
REMARK  194  A    between atoms: _495  and  _496
REMARK  195  A    between atoms: _499  and  _501
REMARK  196  A    between atoms: _501  and  _502
REMARK  197  A    between atoms: _501  and  _504
REMARK  198  A    between atoms: _504  and  _505
REMARK  199  A    between atoms: _508  and  _510
REMARK  200  A    between atoms: _510  and  _511
REMARK  201  A    between atoms: _514  and  _516
REMARK  202  A    between atoms: _516  and  _517
REMARK  203  A    between atoms: _516  and  _519
REMARK  204  A    between atoms: _519  and  _520
REMARK  205  A    between atoms: _523  and  _525
REMARK  206  A    between atoms: _525  and  _526
REMARK  207  A    between atoms: _525  and  _528
REMARK  208  A    between atoms: _531  and  _533
REMARK  209  A    between atoms: _533  and  _534
REMARK  210  A    between atoms: _536  and  _538
REMARK  211  A    between atoms: _538  and  _539
REMARK  212  A    between atoms: _538  and  _541
REMARK  213  A    between atoms: _541  and  _542
REMARK  214  A    between atoms: _544  and  _546
REMARK  215  A    between atoms: _546  and  _547
REMARK  216  A    between atoms: _546  and  _549
REMARK  217  A    between atoms: _549  and  _550
REMARK  218  A    between atoms: _556  and  _558
REMARK  219  A    between atoms: _558  and  _559
REMARK  220  A    between atoms: _558  and  _561
REMARK  221  A    between atoms: _561  and  _562
REMARK  222  A    between atoms: _565  and  _567
REMARK  223  A    between atoms: _567  and  _568
REMARK  224  A    between atoms: _570  and  _572
REMARK  225  A    between atoms: _572  and  _573
REMARK  226  A    between atoms: _575  and  _577
REMARK  227  A    between atoms: _577  and  _578
REMARK  228  A    between atoms: _577  and  _580
REMARK  229  A    between atoms: _580  and  _581
REMARK  230  A    between atoms: _586  and  _587
REMARK  231  A    between atoms: _589  and  _591
REMARK  232  A    between atoms: _591  and  _592
REMARK  233  A    between atoms: _594  and  _596
REMARK  234  A    between atoms: _596  and  _597
REMARK  235  A    between atoms: _596  and  _599
REMARK  236  A    between atoms: _599  and  _600
REMARK  237  A    between atoms: _606  and  _608
REMARK  238  A    between atoms: _608  and  _609
REMARK  239  A    between atoms: _608  and  _611
REMARK  240  A    between atoms: _611  and  _612
REMARK  241  A    between atoms: _615  and  _617
REMARK  242  A    between atoms: _617  and  _618
REMARK  243  A    between atoms: _617  and  _620
REMARK  244  A    between atoms: _620  and  _621
REMARK  245  A    between atoms: _621  and  _622
REMARK  246  A    between atoms: _627  and  _629
REMARK  247  A    between atoms: _629  and  _630
REMARK  248  A    between atoms: _633  and  _635
REMARK  249  A    between atoms: _635  and  _636
REMARK  250  A    between atoms: _638  and  _640
REMARK  251  A    between atoms: _640  and  _641
REMARK  252  A    between atoms: _640  and  _643
REMARK  253  A    between atoms: _643  and  _644
REMARK  254  A    between atoms: _644  and  _645
REMARK  255  A    between atoms: _648  and  _650
REMARK  256  A    between atoms: _650  and  _651
REMARK  257  A    between atoms: _650  and  _653
REMARK  258  A    between atoms: _653  and  _654
REMARK  259  A    between atoms: _657  and  _659
REMARK  260  A    between atoms: _659  and  _660
REMARK  261  A    between atoms: _659  and  _662
REMARK  262  A    between atoms: _662  and  _663
REMARK  263  A    between atoms: _663  and  _664
REMARK  264  A    between atoms: _664  and  _665
REMARK  265  A    between atoms: _674  and  _676
REMARK  266  A    between atoms: _676  and  _677
REMARK  267  A    between atoms: _676  and  _679
REMARK  268  A    between atoms: _679  and  _680
REMARK  269  A    between atoms: _685  and  _686
REMARK  270  A    between atoms: _688  and  _690
REMARK  271  A    between atoms: _690  and  _691
REMARK  272  A    between atoms: _693  and  _695
REMARK  273  A    between atoms: _695  and  _696
REMARK  274  A    between atoms: _695  and  _698
REMARK  275  A    between atoms: _698  and  _699
REMARK  276  A    between atoms: _705  and  _707
REMARK  277  A    between atoms: _707  and  _708
REMARK  278  A    between atoms: _707  and  _710
REMARK  279  A    between atoms: _710  and  _711
REMARK  280  A    between atoms: _714  and  _716
REMARK  281  A    between atoms: _716  and  _717
REMARK  282  A    between atoms: _716  and  _719
REMARK  283  A    between atoms: _719  and  _720
REMARK  284  A    between atoms: _720  and  _721
REMARK  285  A    between atoms: _726  and  _728
REMARK  286  A    between atoms: _728  and  _729
REMARK  287  A    between atoms: _728  and  _731
REMARK  288  A    between atoms: _731  and  _732
REMARK  289  A    between atoms: _732  and  _733
REMARK  290  A    between atoms: _733  and  _734
REMARK  291  A    between atoms: _734  and  _735
REMARK                            x       y       z     vdW  Elec       q    Type
REMARK                         _______ _______ _______ _____ _____    ______ ____
ROOT
ATOM      1  O   HOH     1      28.484 -14.627 204.734  0.00  0.00    +0.000 OA
ENDROOT
TORSDOF 0
REMARK  Name = ../refined-set-2016/4qij/4qij_pocket.pdb
REMARK  291 active torsions:
REMARK  status: ('A' for Active; 'I' for Inactive)
REMARK    1  A    between atoms: _1  and  _3
REMARK    2  A    between atoms: _3  and  _4
REMARK    3  A    between atoms: _3  and  _6
REMARK    4  A    between atoms: _6  and  _7
REMARK    5  A    between atoms: _7  and  _8
REMARK    6  A    between atoms: _8  and  _9
REMARK    7  A    between atoms: _19  and  _20
REMARK    8  A    between atoms: _25  and  _27
REMARK    9  A    between atoms: _27  and  _28
REMARK   10  A    between atoms: _27  and  _30
REMARK   11  A    between atoms: _30  and  _31
REMARK   12  A    between atoms: _31  and  _32
REMARK   13  A    between atoms: _35  and  _37
REMARK   14  A    between atoms: _37  and  _38
REMARK   15  A    between atoms: _37  and  _40
REMARK   16  A    between atoms: _43  and  _45
REMARK   17  A    between atoms: _45  and  _46
REMARK   18  A    between atoms: _45  and  _48
REMARK   19  A    between atoms: _48  and  _49
REMARK   20  A    between atoms: _49  and  _50
REMARK   21  A    between atoms: _50  and  _51
REMARK   22  A    between atoms: _60  and  _62
REMARK   23  A    between atoms: _62  and  _63
REMARK   24  A    between atoms: _62  and  _65
REMARK   25  A    between atoms: _65  and  _66
REMARK   26  A    between atoms: _71  and  _73
REMARK   27  A    between atoms: _73  and  _74
REMARK   28  A    between atoms: _77  and  _79
REMARK   29  A    between atoms: _79  and  _80
REMARK   30  A    between atoms: _79  and  _82
REMARK   31  A    between atoms: _82  and  _83
REMARK   32  A    between atoms: _89  and  _91
REMARK   33  A    between atoms: _91  and  _92
REMARK   34  A    between atoms: _91  and  _94
REMARK   35  A    between atoms: _97  and  _99
REMARK   36  A    between atoms: _99  and  _100
REMARK   37  A    between atoms: _99  and  _102
REMARK   38  A    between atoms: _102  and  _103
REMARK   39  A    between atoms: _105  and  _107
REMARK   40  A    between atoms: _107  and  _108
REMARK   41  A    between atoms: _107  and  _110
REMARK   42  A    between atoms: _110  and  _111
REMARK   43  A    between atoms: _111  and  _112
REMARK   44  A    between atoms: _112  and  _113
REMARK   45  A    between atoms: _113  and  _114
REMARK   46  A    between atoms: _118  and  _120
REMARK   47  A    between atoms: _120  and  _121
REMARK   48  A    between atoms: _120  and  _123
REMARK   49  A    between atoms: _123  and  _124
REMARK   50  A    between atoms: _127  and  _129
REMARK   51  A    between atoms: _129  and  _130
REMARK   52  A    between atoms: _132  and  _134
REMARK   53  A    between atoms: _134  and  _135
REMARK   54  A    between atoms: _134  and  _137
REMARK   55  A    between atoms: _137  and  _138
REMARK   56  A    between atoms: _148  and  _150
REMARK   57  A    between atoms: _150  and  _151
REMARK   58  A    between atoms: _154  and  _156
REMARK   59  A    between atoms: _156  and  _157
REMARK   60  A    between atoms: _156  and  _159
REMARK   61  A    between atoms: _159  and  _160
REMARK   62  A    between atoms: _166  and  _168
REMARK   63  A    between atoms: _168  and  _169
REMARK   64  A    between atoms: _168  and  _171
REMARK   65  A    between atoms: _173  and  _175
REMARK   66  A    between atoms: _175  and  _176
REMARK   67  A    between atoms: _175  and  _178
REMARK   68  A    between atoms: _178  and  _179
REMARK   69  A    between atoms: _181  and  _183
REMARK   70  A    between atoms: _183  and  _184
REMARK   71  A    between atoms: _186  and  _188
REMARK   72  A    between atoms: _188  and  _189
REMARK   73  A    between atoms: _191  and  _193
REMARK   74  A    between atoms: _193  and  _194
REMARK   75  A    between atoms: _193  and  _196
REMARK   76  A    between atoms: _196  and  _197
REMARK   77  A    between atoms: _200  and  _202
REMARK   78  A    between atoms: _202  and  _203
REMARK   79  A    between atoms: _202  and  _205
REMARK   80  A    between atoms: _205  and  _206
REMARK   81  A    between atoms: _206  and  _207
REMARK   82  A    between atoms: _212  and  _214
REMARK   83  A    between atoms: _214  and  _215
REMARK   84  A    between atoms: _214  and  _217
REMARK   85  A    between atoms: _217  and  _218
REMARK   86  A    between atoms: _218  and  _219
REMARK   87  A    between atoms: _219  and  _220
REMARK   88  A    between atoms: _229  and  _231
REMARK   89  A    between atoms: _231  and  _232
REMARK   90  A    between atoms: _231  and  _234
REMARK   91  A    between atoms: _234  and  _235
REMARK   92  A    between atoms: _238  and  _240
REMARK   93  A    between atoms: _240  and  _241
REMARK   94  A    between atoms: _240  and  _243
REMARK   95  A    between atoms: _243  and  _244
REMARK   96  A    between atoms: _244  and  _245
REMARK   97  A    between atoms: _245  and  _246
REMARK   98  A    between atoms: _255  and  _257
REMARK   99  A    between atoms: _257  and  _258
REMARK  100  A    between atoms: _260  and  _262
REMARK  101  A    between atoms: _262  and  _263
REMARK  102  A    between atoms: _262  and  _265
REMARK  103  A    between atoms: _265  and  _266
REMARK  104  A    between atoms: _271  and  _272
REMARK  105  A    between atoms: _274  and  _276
REMARK  106  A    between atoms: _276  and  _277
REMARK  107  A    between atoms: _276  and  _279
REMARK  108  A    between atoms: _279  and  _280
REMARK  109  A    between atoms: _283  and  _285
REMARK  110  A    between atoms: _285  and  _286
REMARK  111  A    between atoms: _285  and  _288
REMARK  112  A    between atoms: _288  and  _289
REMARK  113  A    between atoms: _289  and  _290
REMARK  114  A    between atoms: _290  and  _291
REMARK  115  A    between atoms: _300  and  _302
REMARK  116  A    between atoms: _302  and  _303
REMARK  117  A    between atoms: _302  and  _305
REMARK  118  A    between atoms: _305  and  _306
REMARK  119  A    between atoms: _309  and  _311
REMARK  120  A    between atoms: _311  and  _312
REMARK  121  A    between atoms: _311  and  _314
REMARK  122  A    between atoms: _314  and  _315
REMARK  123  A    between atoms: _320  and  _322
REMARK  124  A    between atoms: _322  and  _323
REMARK  125  A    between atoms: _322  and  _325
REMARK  126  A    between atoms: _325  and  _326
REMARK  127  A    between atoms: _329  and  _331
REMARK  128  A    between atoms: _331  and  _332
REMARK  129  A    between atoms: _331  and  _334
REMARK  130  A    between atoms: _334  and  _335
REMARK  131  A    between atoms: _338  and  _340
REMARK  132  A    between atoms: _340  and  _341
REMARK  133  A    between atoms: _340  and  _343
REMARK  134  A    between atoms: _343  and  _344
REMARK  135  A    between atoms: _344  and  _345
REMARK  136  A    between atoms: _348  and  _350
REMARK  137  A    between atoms: _350  and  _351
REMARK  138  A    between atoms: _350  and  _353
REMARK  139  A    between atoms: _353  and  _354
REMARK  140  A    between atoms: _354  and  _355
REMARK  141  A    between atoms: _360  and  _362
REMARK  142  A    between atoms: _362  and  _363
REMARK  143  A    between atoms: _365  and  _367
REMARK  144  A    between atoms: _367  and  _368
REMARK  145  A    between atoms: _367  and  _370
REMARK  146  A    between atoms: _370  and  _371
REMARK  147  A    between atoms: _381  and  _383
REMARK  148  A    between atoms: _383  and  _384
REMARK  149  A    between atoms: _387  and  _389
REMARK  150  A    between atoms: _389  and  _390
REMARK  151  A    between atoms: _393  and  _395
REMARK  152  A    between atoms: _395  and  _396
REMARK  153  A    between atoms: _398  and  _400
REMARK  154  A    between atoms: _400  and  _401
REMARK  155  A    between atoms: _403  and  _405
REMARK  156  A    between atoms: _405  and  _406
REMARK  157  A    between atoms: _408  and  _410
REMARK  158  A    between atoms: _410  and  _411
REMARK  159  A    between atoms: _410  and  _413
REMARK  160  A    between atoms: _413  and  _414
REMARK  161  A    between atoms: _419  and  _421
REMARK  162  A    between atoms: _421  and  _422
REMARK  163  A    between atoms: _421  and  _424
REMARK  164  A    between atoms: _424  and  _425
REMARK  165  A    between atoms: _427  and  _429
REMARK  166  A    between atoms: _429  and  _430
REMARK  167  A    between atoms: _429  and  _432
REMARK  168  A    between atoms: _432  and  _433
REMARK  169  A    between atoms: _436  and  _438
REMARK  170  A    between atoms: _438  and  _439
REMARK  171  A    between atoms: _438  and  _441
REMARK  172  A    between atoms: _441  and  _442
REMARK  173  A    between atoms: _442  and  _443
REMARK  174  A    between atoms: _443  and  _444
REMARK  175  A    between atoms: _453  and  _455
REMARK  176  A    between atoms: _455  and  _456
REMARK  177  A    between atoms: _455  and  _458
REMARK  178  A    between atoms: _458  and  _459
REMARK  179  A    between atoms: _465  and  _467
REMARK  180  A    between atoms: _467  and  _468
REMARK  181  A    between atoms: _467  and  _470
REMARK  182  A    between atoms: _470  and  _471
REMARK  183  A    between atoms: _471  and  _472
REMARK  184  A    between atoms: _472  and  _473
REMARK  185  A    between atoms: _473  and  _474
REMARK  186  A    between atoms: _478  and  _480
REMARK  187  A    between atoms: _480  and  _481
REMARK  188  A    between atoms: _480  and  _483
REMARK  189  A    between atoms: _483  and  _484
REMARK  190  A    between atoms: _484  and  _485
REMARK  191  A    between atoms: _490  and  _492
REMARK  192  A    between atoms: _492  and  _493
REMARK  193  A    between atoms: _492  and  _495
REMARK  194  A    between atoms: _495  and  _496
REMARK  195  A    between atoms: _499  and  _501
REMARK  196  A    between atoms: _501  and  _502
REMARK  197  A    between atoms: _501  and  _504
REMARK  198  A    between atoms: _504  and  _505
REMARK  199  A    between atoms: _508  and  _510
REMARK  200  A    between atoms: _510  and  _511
REMARK  201  A    between atoms: _514  and  _516
REMARK  202  A    between atoms: _516  and  _517
REMARK  203  A    between atoms: _516  and  _519
REMARK  204  A    between atoms: _519  and  _520
REMARK  205  A    between atoms: _523  and  _525
REMARK  206  A    between atoms: _525  and  _526
REMARK  207  A    between atoms: _525  and  _528
REMARK  208  A    between atoms: _531  and  _533
REMARK  209  A    between atoms: _533  and  _534
REMARK  210  A    between atoms: _536  and  _538
REMARK  211  A    between atoms: _538  and  _539
REMARK  212  A    between atoms: _538  and  _541
REMARK  213  A    between atoms: _541  and  _542
REMARK  214  A    between atoms: _544  and  _546
REMARK  215  A    between atoms: _546  and  _547
REMARK  216  A    between atoms: _546  and  _549
REMARK  217  A    between atoms: _549  and  _550
REMARK  218  A    between atoms: _556  and  _558
REMARK  219  A    between atoms: _558  and  _559
REMARK  220  A    between atoms: _558  and  _561
REMARK  221  A    between atoms: _561  and  _562
REMARK  222  A    between atoms: _565  and  _567
REMARK  223  A    between atoms: _567  and  _568
REMARK  224  A    between atoms: _570  and  _572
REMARK  225  A    between atoms: _572  and  _573
REMARK  226  A    between atoms: _575  and  _577
REMARK  227  A    between atoms: _577  and  _578
REMARK  228  A    between atoms: _577  and  _580
REMARK  229  A    between atoms: _580  and  _581
REMARK  230  A    between atoms: _586  and  _587
REMARK  231  A    between atoms: _589  and  _591
REMARK  232  A    between atoms: _591  and  _592
REMARK  233  A    between atoms: _594  and  _596
REMARK  234  A    between atoms: _596  and  _597
REMARK  235  A    between atoms: _596  and  _599
REMARK  236  A    between atoms: _599  and  _600
REMARK  237  A    between atoms: _606  and  _608
REMARK  238  A    between atoms: _608  and  _609
REMARK  239  A    between atoms: _608  and  _611
REMARK  240  A    between atoms: _611  and  _612
REMARK  241  A    between atoms: _615  and  _617
REMARK  242  A    between atoms: _617  and  _618
REMARK  243  A    between atoms: _617  and  _620
REMARK  244  A    between atoms: _620  and  _621
REMARK  245  A    between atoms: _621  and  _622
REMARK  246  A    between atoms: _627  and  _629
REMARK  247  A    between atoms: _629  and  _630
REMARK  248  A    between atoms: _633  and  _635
REMARK  249  A    between atoms: _635  and  _636
REMARK  250  A    between atoms: _638  and  _640
REMARK  251  A    between atoms: _640  and  _641
REMARK  252  A    between atoms: _640  and  _643
REMARK  253  A    between atoms: _643  and  _644
REMARK  254  A    between atoms: _644  and  _645
REMARK  255  A    between atoms: _648  and  _650
REMARK  256  A    between atoms: _650  and  _651
REMARK  257  A    between atoms: _650  and  _653
REMARK  258  A    between atoms: _653  and  _654
REMARK  259  A    between atoms: _657  and  _659
REMARK  260  A    between atoms: _659  and  _660
REMARK  261  A    between atoms: _659  and  _662
REMARK  262  A    between atoms: _662  and  _663
REMARK  263  A    between atoms: _663  and  _664
REMARK  264  A    between atoms: _664  and  _665
REMARK  265  A    between atoms: _674  and  _676
REMARK  266  A    between atoms: _676  and  _677
REMARK  267  A    between atoms: _676  and  _679
REMARK  268  A    between atoms: _679  and  _680
REMARK  269  A    between atoms: _685  and  _686
REMARK  270  A    between atoms: _688  and  _690
REMARK  271  A    between atoms: _690  and  _691
REMARK  272  A    between atoms: _693  and  _695
REMARK  273  A    between atoms: _695  and  _696
REMARK  274  A    between atoms: _695  and  _698
REMARK  275  A    between atoms: _698  and  _699
REMARK  276  A    between atoms: _705  and  _707
REMARK  277  A    between atoms: _707  and  _708
REMARK  278  A    between atoms: _707  and  _710
REMARK  279  A    between atoms: _710  and  _711
REMARK  280  A    between atoms: _714  and  _716
REMARK  281  A    between atoms: _716  and  _717
REMARK  282  A    between atoms: _716  and  _719
REMARK  283  A    between atoms: _719  and  _720
REMARK  284  A    between atoms: _720  and  _721
REMARK  285  A    between atoms: _726  and  _728
REMARK  286  A    between atoms: _728  and  _729
REMARK  287  A    between atoms: _728  and  _731
REMARK  288  A    between atoms: _731  and  _732
REMARK  289  A    between atoms: _732  and  _733
REMARK  290  A    between atoms: _733  and  _734
REMARK  291  A    between atoms: _734  and  _735
REMARK                            x       y       z     vdW  Elec       q    Type
REMARK                         _______ _______ _______ _____ _____    ______ ____
ROOT
ATOM      1  O   HOH     1      21.292 -16.557 198.771  0.00  0.00    +0.000 OA
ENDROOT
TORSDOF 0
REMARK  Name = ../refined-set-2016/4qij/4qij_pocket.pdb
REMARK  291 active torsions:
REMARK  status: ('A' for Active; 'I' for Inactive)
REMARK    1  A    between atoms: _1  and  _3
REMARK    2  A    between atoms: _3  and  _4
REMARK    3  A    between atoms: _3  and  _6
REMARK    4  A    between atoms: _6  and  _7
REMARK    5  A    between atoms: _7  and  _8
REMARK    6  A    between atoms: _8  and  _9
REMARK    7  A    between atoms: _19  and  _20
REMARK    8  A    between atoms: _25  and  _27
REMARK    9  A    between atoms: _27  and  _28
REMARK   10  A    between atoms: _27  and  _30
REMARK   11  A    between atoms: _30  and  _31
REMARK   12  A    between atoms: _31  and  _32
REMARK   13  A    between atoms: _35  and  _37
REMARK   14  A    between atoms: _37  and  _38
REMARK   15  A    between atoms: _37  and  _40
REMARK   16  A    between atoms: _43  and  _45
REMARK   17  A    between atoms: _45  and  _46
REMARK   18  A    between atoms: _45  and  _48
REMARK   19  A    between atoms: _48  and  _49
REMARK   20  A    between atoms: _49  and  _50
REMARK   21  A    between atoms: _50  and  _51
REMARK   22  A    between atoms: _60  and  _62
REMARK   23  A    between atoms: _62  and  _63
REMARK   24  A    between atoms: _62  and  _65
REMARK   25  A    between atoms: _65  and  _66
REMARK   26  A    between atoms: _71  and  _73
REMARK   27  A    between atoms: _73  and  _74
REMARK   28  A    between atoms: _77  and  _79
REMARK   29  A    between atoms: _79  and  _80
REMARK   30  A    between atoms: _79  and  _82
REMARK   31  A    between atoms: _82  and  _83
REMARK   32  A    between atoms: _89  and  _91
REMARK   33  A    between atoms: _91  and  _92
REMARK   34  A    between atoms: _91  and  _94
REMARK   35  A    between atoms: _97  and  _99
REMARK   36  A    between atoms: _99  and  _100
REMARK   37  A    between atoms: _99  and  _102
REMARK   38  A    between atoms: _102  and  _103
REMARK   39  A    between atoms: _105  and  _107
REMARK   40  A    between atoms: _107  and  _108
REMARK   41  A    between atoms: _107  and  _110
REMARK   42  A    between atoms: _110  and  _111
REMARK   43  A    between atoms: _111  and  _112
REMARK   44  A    between atoms: _112  and  _113
REMARK   45  A    between atoms: _113  and  _114
REMARK   46  A    between atoms: _118  and  _120
REMARK   47  A    between atoms: _120  and  _121
REMARK   48  A    between atoms: _120  and  _123
REMARK   49  A    between atoms: _123  and  _124
REMARK   50  A    between atoms: _127  and  _129
REMARK   51  A    between atoms: _129  and  _130
REMARK   52  A    between atoms: _132  and  _134
REMARK   53  A    between atoms: _134  and  _135
REMARK   54  A    between atoms: _134  and  _137
REMARK   55  A    between atoms: _137  and  _138
REMARK   56  A    between atoms: _148  and  _150
REMARK   57  A    between atoms: _150  and  _151
REMARK   58  A    between atoms: _154  and  _156
REMARK   59  A    between atoms: _156  and  _157
REMARK   60  A    between atoms: _156  and  _159
REMARK   61  A    between atoms: _159  and  _160
REMARK   62  A    between atoms: _166  and  _168
REMARK   63  A    between atoms: _168  and  _169
REMARK   64  A    between atoms: _168  and  _171
REMARK   65  A    between atoms: _173  and  _175
REMARK   66  A    between atoms: _175  and  _176
REMARK   67  A    between atoms: _175  and  _178
REMARK   68  A    between atoms: _178  and  _179
REMARK   69  A    between atoms: _181  and  _183
REMARK   70  A    between atoms: _183  and  _184
REMARK   71  A    between atoms: _186  and  _188
REMARK   72  A    between atoms: _188  and  _189
REMARK   73  A    between atoms: _191  and  _193
REMARK   74  A    between atoms: _193  and  _194
REMARK   75  A    between atoms: _193  and  _196
REMARK   76  A    between atoms: _196  and  _197
REMARK   77  A    between atoms: _200  and  _202
REMARK   78  A    between atoms: _202  and  _203
REMARK   79  A    between atoms: _202  and  _205
REMARK   80  A    between atoms: _205  and  _206
REMARK   81  A    between atoms: _206  and  _207
REMARK   82  A    between atoms: _212  and  _214
REMARK   83  A    between atoms: _214  and  _215
REMARK   84  A    between atoms: _214  and  _217
REMARK   85  A    between atoms: _217  and  _218
REMARK   86  A    between atoms: _218  and  _219
REMARK   87  A    between atoms: _219  and  _220
REMARK   88  A    between atoms: _229  and  _231
REMARK   89  A    between atoms: _231  and  _232
REMARK   90  A    between atoms: _231  and  _234
REMARK   91  A    between atoms: _234  and  _235
REMARK   92  A    between atoms: _238  and  _240
REMARK   93  A    between atoms: _240  and  _241
REMARK   94  A    between atoms: _240  and  _243
REMARK   95  A    between atoms: _243  and  _244
REMARK   96  A    between atoms: _244  and  _245
REMARK   97  A    between atoms: _245  and  _246
REMARK   98  A    between atoms: _255  and  _257
REMARK   99  A    between atoms: _257  and  _258
REMARK  100  A    between atoms: _260  and  _262
REMARK  101  A    between atoms: _262  and  _263
REMARK  102  A    between atoms: _262  and  _265
REMARK  103  A    between atoms: _265  and  _266
REMARK  104  A    between atoms: _271  and  _272
REMARK  105  A    between atoms: _274  and  _276
REMARK  106  A    between atoms: _276  and  _277
REMARK  107  A    between atoms: _276  and  _279
REMARK  108  A    between atoms: _279  and  _280
REMARK  109  A    between atoms: _283  and  _285
REMARK  110  A    between atoms: _285  and  _286
REMARK  111  A    between atoms: _285  and  _288
REMARK  112  A    between atoms: _288  and  _289
REMARK  113  A    between atoms: _289  and  _290
REMARK  114  A    between atoms: _290  and  _291
REMARK  115  A    between atoms: _300  and  _302
REMARK  116  A    between atoms: _302  and  _303
REMARK  117  A    between atoms: _302  and  _305
REMARK  118  A    between atoms: _305  and  _306
REMARK  119  A    between atoms: _309  and  _311
REMARK  120  A    between atoms: _311  and  _312
REMARK  121  A    between atoms: _311  and  _314
REMARK  122  A    between atoms: _314  and  _315
REMARK  123  A    between atoms: _320  and  _322
REMARK  124  A    between atoms: _322  and  _323
REMARK  125  A    between atoms: _322  and  _325
REMARK  126  A    between atoms: _325  and  _326
REMARK  127  A    between atoms: _329  and  _331
REMARK  128  A    between atoms: _331  and  _332
REMARK  129  A    between atoms: _331  and  _334
REMARK  130  A    between atoms: _334  and  _335
REMARK  131  A    between atoms: _338  and  _340
REMARK  132  A    between atoms: _340  and  _341
REMARK  133  A    between atoms: _340  and  _343
REMARK  134  A    between atoms: _343  and  _344
REMARK  135  A    between atoms: _344  and  _345
REMARK  136  A    between atoms: _348  and  _350
REMARK  137  A    between atoms: _350  and  _351
REMARK  138  A    between atoms: _350  and  _353
REMARK  139  A    between atoms: _353  and  _354
REMARK  140  A    between atoms: _354  and  _355
REMARK  141  A    between atoms: _360  and  _362
REMARK  142  A    between atoms: _362  and  _363
REMARK  143  A    between atoms: _365  and  _367
REMARK  144  A    between atoms: _367  and  _368
REMARK  145  A    between atoms: _367  and  _370
REMARK  146  A    between atoms: _370  and  _371
REMARK  147  A    between atoms: _381  and  _383
REMARK  148  A    between atoms: _383  and  _384
REMARK  149  A    between atoms: _387  and  _389
REMARK  150  A    between atoms: _389  and  _390
REMARK  151  A    between atoms: _393  and  _395
REMARK  152  A    between atoms: _395  and  _396
REMARK  153  A    between atoms: _398  and  _400
REMARK  154  A    between atoms: _400  and  _401
REMARK  155  A    between atoms: _403  and  _405
REMARK  156  A    between atoms: _405  and  _406
REMARK  157  A    between atoms: _408  and  _410
REMARK  158  A    between atoms: _410  and  _411
REMARK  159  A    between atoms: _410  and  _413
REMARK  160  A    between atoms: _413  and  _414
REMARK  161  A    between atoms: _419  and  _421
REMARK  162  A    between atoms: _421  and  _422
REMARK  163  A    between atoms: _421  and  _424
REMARK  164  A    between atoms: _424  and  _425
REMARK  165  A    between atoms: _427  and  _429
REMARK  166  A    between atoms: _429  and  _430
REMARK  167  A    between atoms: _429  and  _432
REMARK  168  A    between atoms: _432  and  _433
REMARK  169  A    between atoms: _436  and  _438
REMARK  170  A    between atoms: _438  and  _439
REMARK  171  A    between atoms: _438  and  _441
REMARK  172  A    between atoms: _441  and  _442
REMARK  173  A    between atoms: _442  and  _443
REMARK  174  A    between atoms: _443  and  _444
REMARK  175  A    between atoms: _453  and  _455
REMARK  176  A    between atoms: _455  and  _456
REMARK  177  A    between atoms: _455  and  _458
REMARK  178  A    between atoms: _458  and  _459
REMARK  179  A    between atoms: _465  and  _467
REMARK  180  A    between atoms: _467  and  _468
REMARK  181  A    between atoms: _467  and  _470
REMARK  182  A    between atoms: _470  and  _471
REMARK  183  A    between atoms: _471  and  _472
REMARK  184  A    between atoms: _472  and  _473
REMARK  185  A    between atoms: _473  and  _474
REMARK  186  A    between atoms: _478  and  _480
REMARK  187  A    between atoms: _480  and  _481
REMARK  188  A    between atoms: _480  and  _483
REMARK  189  A    between atoms: _483  and  _484
REMARK  190  A    between atoms: _484  and  _485
REMARK  191  A    between atoms: _490  and  _492
REMARK  192  A    between atoms: _492  and  _493
REMARK  193  A    between atoms: _492  and  _495
REMARK  194  A    between atoms: _495  and  _496
REMARK  195  A    between atoms: _499  and  _501
REMARK  196  A    between atoms: _501  and  _502
REMARK  197  A    between atoms: _501  and  _504
REMARK  198  A    between atoms: _504  and  _505
REMARK  199  A    between atoms: _508  and  _510
REMARK  200  A    between atoms: _510  and  _511
REMARK  201  A    between atoms: _514  and  _516
REMARK  202  A    between atoms: _516  and  _517
REMARK  203  A    between atoms: _516  and  _519
REMARK  204  A    between atoms: _519  and  _520
REMARK  205  A    between atoms: _523  and  _525
REMARK  206  A    between atoms: _525  and  _526
REMARK  207  A    between atoms: _525  and  _528
REMARK  208  A    between atoms: _531  and  _533
REMARK  209  A    between atoms: _533  and  _534
REMARK  210  A    between atoms: _536  and  _538
REMARK  211  A    between atoms: _538  and  _539
REMARK  212  A    between atoms: _538  and  _541
REMARK  213  A    between atoms: _541  and  _542
REMARK  214  A    between atoms: _544  and  _546
REMARK  215  A    between atoms: _546  and  _547
REMARK  216  A    between atoms: _546  and  _549
REMARK  217  A    between atoms: _549  and  _550
REMARK  218  A    between atoms: _556  and  _558
REMARK  219  A    between atoms: _558  and  _559
REMARK  220  A    between atoms: _558  and  _561
REMARK  221  A    between atoms: _561  and  _562
REMARK  222  A    between atoms: _565  and  _567
REMARK  223  A    between atoms: _567  and  _568
REMARK  224  A    between atoms: _570  and  _572
REMARK  225  A    between atoms: _572  and  _573
REMARK  226  A    between atoms: _575  and  _577
REMARK  227  A    between atoms: _577  and  _578
REMARK  228  A    between atoms: _577  and  _580
REMARK  229  A    between atoms: _580  and  _581
REMARK  230  A    between atoms: _586  and  _587
REMARK  231  A    between atoms: _589  and  _591
REMARK  232  A    between atoms: _591  and  _592
REMARK  233  A    between atoms: _594  and  _596
REMARK  234  A    between atoms: _596  and  _597
REMARK  235  A    between atoms: _596  and  _599
REMARK  236  A    between atoms: _599  and  _600
REMARK  237  A    between atoms: _606  and  _608
REMARK  238  A    between atoms: _608  and  _609
REMARK  239  A    between atoms: _608  and  _611
REMARK  240  A    between atoms: _611  and  _612
REMARK  241  A    between atoms: _615  and  _617
REMARK  242  A    between atoms: _617  and  _618
REMARK  243  A    between atoms: _617  and  _620
REMARK  244  A    between atoms: _620  and  _621
REMARK  245  A    between atoms: _621  and  _622
REMARK  246  A    between atoms: _627  and  _629
REMARK  247  A    between atoms: _629  and  _630
REMARK  248  A    between atoms: _633  and  _635
REMARK  249  A    between atoms: _635  and  _636
REMARK  250  A    between atoms: _638  and  _640
REMARK  251  A    between atoms: _640  and  _641
REMARK  252  A    between atoms: _640  and  _643
REMARK  253  A    between atoms: _643  and  _644
REMARK  254  A    between atoms: _644  and  _645
REMARK  255  A    between atoms: _648  and  _650
REMARK  256  A    between atoms: _650  and  _651
REMARK  257  A    between atoms: _650  and  _653
REMARK  258  A    between atoms: _653  and  _654
REMARK  259  A    between atoms: _657  and  _659
REMARK  260  A    between atoms: _659  and  _660
REMARK  261  A    between atoms: _659  and  _662
REMARK  262  A    between atoms: _662  and  _663
REMARK  263  A    between atoms: _663  and  _664
REMARK  264  A    between atoms: _664  and  _665
REMARK  265  A    between atoms: _674  and  _676
REMARK  266  A    between atoms: _676  and  _677
REMARK  267  A    between atoms: _676  and  _679
REMARK  268  A    between atoms: _679  and  _680
REMARK  269  A    between atoms: _685  and  _686
REMARK  270  A    between atoms: _688  and  _690
REMARK  271  A    between atoms: _690  and  _691
REMARK  272  A    between atoms: _693  and  _695
REMARK  273  A    between atoms: _695  and  _696
REMARK  274  A    between atoms: _695  and  _698
REMARK  275  A    between atoms: _698  and  _699
REMARK  276  A    between atoms: _705  and  _707
REMARK  277  A    between atoms: _707  and  _708
REMARK  278  A    between atoms: _707  and  _710
REMARK  279  A    between atoms: _710  and  _711
REMARK  280  A    between atoms: _714  and  _716
REMARK  281  A    between atoms: _716  and  _717
REMARK  282  A    between atoms: _716  and  _719
REMARK  283  A    between atoms: _719  and  _720
REMARK  284  A    between atoms: _720  and  _721
REMARK  285  A    between atoms: _726  and  _728
REMARK  286  A    between atoms: _728  and  _729
REMARK  287  A    between atoms: _728  and  _731
REMARK  288  A    between atoms: _731  and  _732
REMARK  289  A    between atoms: _732  and  _733
REMARK  290  A    between atoms: _733  and  _734
REMARK  291  A    between atoms: _734  and  _735
REMARK                            x       y       z     vdW  Elec       q    Type
REMARK                         _______ _______ _______ _____ _____    ______ ____
ROOT
ATOM      1  O   HOH     1      37.297  -9.889 205.181  0.00  0.00    +0.000 OA
ENDROOT
TORSDOF 0
REMARK  Name = ../refined-set-2016/4qij/4qij_pocket.pdb
REMARK  291 active torsions:
REMARK  status: ('A' for Active; 'I' for Inactive)
REMARK    1  A    between atoms: _1  and  _3
REMARK    2  A    between atoms: _3  and  _4
REMARK    3  A    between atoms: _3  and  _6
REMARK    4  A    between atoms: _6  and  _7
REMARK    5  A    between atoms: _7  and  _8
REMARK    6  A    between atoms: _8  and  _9
REMARK    7  A    between atoms: _19  and  _20
REMARK    8  A    between atoms: _25  and  _27
REMARK    9  A    between atoms: _27  and  _28
REMARK   10  A    between atoms: _27  and  _30
REMARK   11  A    between atoms: _30  and  _31
REMARK   12  A    between atoms: _31  and  _32
REMARK   13  A    between atoms: _35  and  _37
REMARK   14  A    between atoms: _37  and  _38
REMARK   15  A    between atoms: _37  and  _40
REMARK   16  A    between atoms: _43  and  _45
REMARK   17  A    between atoms: _45  and  _46
REMARK   18  A    between atoms: _45  and  _48
REMARK   19  A    between atoms: _48  and  _49
REMARK   20  A    between atoms: _49  and  _50
REMARK   21  A    between atoms: _50  and  _51
REMARK   22  A    between atoms: _60  and  _62
REMARK   23  A    between atoms: _62  and  _63
REMARK   24  A    between atoms: _62  and  _65
REMARK   25  A    between atoms: _65  and  _66
REMARK   26  A    between atoms: _71  and  _73
REMARK   27  A    between atoms: _73  and  _74
REMARK   28  A    between atoms: _77  and  _79
REMARK   29  A    between atoms: _79  and  _80
REMARK   30  A    between atoms: _79  and  _82
REMARK   31  A    between atoms: _82  and  _83
REMARK   32  A    between atoms: _89  and  _91
REMARK   33  A    between atoms: _91  and  _92
REMARK   34  A    between atoms: _91  and  _94
REMARK   35  A    between atoms: _97  and  _99
REMARK   36  A    between atoms: _99  and  _100
REMARK   37  A    between atoms: _99  and  _102
REMARK   38  A    between atoms: _102  and  _103
REMARK   39  A    between atoms: _105  and  _107
REMARK   40  A    between atoms: _107  and  _108
REMARK   41  A    between atoms: _107  and  _110
REMARK   42  A    between atoms: _110  and  _111
REMARK   43  A    between atoms: _111  and  _112
REMARK   44  A    between atoms: _112  and  _113
REMARK   45  A    between atoms: _113  and  _114
REMARK   46  A    between atoms: _118  and  _120
REMARK   47  A    between atoms: _120  and  _121
REMARK   48  A    between atoms: _120  and  _123
REMARK   49  A    between atoms: _123  and  _124
REMARK   50  A    between atoms: _127  and  _129
REMARK   51  A    between atoms: _129  and  _130
REMARK   52  A    between atoms: _132  and  _134
REMARK   53  A    between atoms: _134  and  _135
REMARK   54  A    between atoms: _134  and  _137
REMARK   55  A    between atoms: _137  and  _138
REMARK   56  A    between atoms: _148  and  _150
REMARK   57  A    between atoms: _150  and  _151
REMARK   58  A    between atoms: _154  and  _156
REMARK   59  A    between atoms: _156  and  _157
REMARK   60  A    between atoms: _156  and  _159
REMARK   61  A    between atoms: _159  and  _160
REMARK   62  A    between atoms: _166  and  _168
REMARK   63  A    between atoms: _168  and  _169
REMARK   64  A    between atoms: _168  and  _171
REMARK   65  A    between atoms: _173  and  _175
REMARK   66  A    between atoms: _175  and  _176
REMARK   67  A    between atoms: _175  and  _178
REMARK   68  A    between atoms: _178  and  _179
REMARK   69  A    between atoms: _181  and  _183
REMARK   70  A    between atoms: _183  and  _184
REMARK   71  A    between atoms: _186  and  _188
REMARK   72  A    between atoms: _188  and  _189
REMARK   73  A    between atoms: _191  and  _193
REMARK   74  A    between atoms: _193  and  _194
REMARK   75  A    between atoms: _193  and  _196
REMARK   76  A    between atoms: _196  and  _197
REMARK   77  A    between atoms: _200  and  _202
REMARK   78  A    between atoms: _202  and  _203
REMARK   79  A    between atoms: _202  and  _205
REMARK   80  A    between atoms: _205  and  _206
REMARK   81  A    between atoms: _206  and  _207
REMARK   82  A    between atoms: _212  and  _214
REMARK   83  A    between atoms: _214  and  _215
REMARK   84  A    between atoms: _214  and  _217
REMARK   85  A    between atoms: _217  and  _218
REMARK   86  A    between atoms: _218  and  _219
REMARK   87  A    between atoms: _219  and  _220
REMARK   88  A    between atoms: _229  and  _231
REMARK   89  A    between atoms: _231  and  _232
REMARK   90  A    between atoms: _231  and  _234
REMARK   91  A    between atoms: _234  and  _235
REMARK   92  A    between atoms: _238  and  _240
REMARK   93  A    between atoms: _240  and  _241
REMARK   94  A    between atoms: _240  and  _243
REMARK   95  A    between atoms: _243  and  _244
REMARK   96  A    between atoms: _244  and  _245
REMARK   97  A    between atoms: _245  and  _246
REMARK   98  A    between atoms: _255  and  _257
REMARK   99  A    between atoms: _257  and  _258
REMARK  100  A    between atoms: _260  and  _262
REMARK  101  A    between atoms: _262  and  _263
REMARK  102  A    between atoms: _262  and  _265
REMARK  103  A    between atoms: _265  and  _266
REMARK  104  A    between atoms: _271  and  _272
REMARK  105  A    between atoms: _274  and  _276
REMARK  106  A    between atoms: _276  and  _277
REMARK  107  A    between atoms: _276  and  _279
REMARK  108  A    between atoms: _279  and  _280
REMARK  109  A    between atoms: _283  and  _285
REMARK  110  A    between atoms: _285  and  _286
REMARK  111  A    between atoms: _285  and  _288
REMARK  112  A    between atoms: _288  and  _289
REMARK  113  A    between atoms: _289  and  _290
REMARK  114  A    between atoms: _290  and  _291
REMARK  115  A    between atoms: _300  and  _302
REMARK  116  A    between atoms: _302  and  _303
REMARK  117  A    between atoms: _302  and  _305
REMARK  118  A    between atoms: _305  and  _306
REMARK  119  A    between atoms: _309  and  _311
REMARK  120  A    between atoms: _311  and  _312
REMARK  121  A    between atoms: _311  and  _314
REMARK  122  A    between atoms: _314  and  _315
REMARK  123  A    between atoms: _320  and  _322
REMARK  124  A    between atoms: _322  and  _323
REMARK  125  A    between atoms: _322  and  _325
REMARK  126  A    between atoms: _325  and  _326
REMARK  127  A    between atoms: _329  and  _331
REMARK  128  A    between atoms: _331  and  _332
REMARK  129  A    between atoms: _331  and  _334
REMARK  130  A    between atoms: _334  and  _335
REMARK  131  A    between atoms: _338  and  _340
REMARK  132  A    between atoms: _340  and  _341
REMARK  133  A    between atoms: _340  and  _343
REMARK  134  A    between atoms: _343  and  _344
REMARK  135  A    between atoms: _344  and  _345
REMARK  136  A    between atoms: _348  and  _350
REMARK  137  A    between atoms: _350  and  _351
REMARK  138  A    between atoms: _350  and  _353
REMARK  139  A    between atoms: _353  and  _354
REMARK  140  A    between atoms: _354  and  _355
REMARK  141  A    between atoms: _360  and  _362
REMARK  142  A    between atoms: _362  and  _363
REMARK  143  A    between atoms: _365  and  _367
REMARK  144  A    between atoms: _367  and  _368
REMARK  145  A    between atoms: _367  and  _370
REMARK  146  A    between atoms: _370  and  _371
REMARK  147  A    between atoms: _381  and  _383
REMARK  148  A    between atoms: _383  and  _384
REMARK  149  A    between atoms: _387  and  _389
REMARK  150  A    between atoms: _389  and  _390
REMARK  151  A    between atoms: _393  and  _395
REMARK  152  A    between atoms: _395  and  _396
REMARK  153  A    between atoms: _398  and  _400
REMARK  154  A    between atoms: _400  and  _401
REMARK  155  A    between atoms: _403  and  _405
REMARK  156  A    between atoms: _405  and  _406
REMARK  157  A    between atoms: _408  and  _410
REMARK  158  A    between atoms: _410  and  _411
REMARK  159  A    between atoms: _410  and  _413
REMARK  160  A    between atoms: _413  and  _414
REMARK  161  A    between atoms: _419  and  _421
REMARK  162  A    between atoms: _421  and  _422
REMARK  163  A    between atoms: _421  and  _424
REMARK  164  A    between atoms: _424  and  _425
REMARK  165  A    between atoms: _427  and  _429
REMARK  166  A    between atoms: _429  and  _430
REMARK  167  A    between atoms: _429  and  _432
REMARK  168  A    between atoms: _432  and  _433
REMARK  169  A    between atoms: _436  and  _438
REMARK  170  A    between atoms: _438  and  _439
REMARK  171  A    between atoms: _438  and  _441
REMARK  172  A    between atoms: _441  and  _442
REMARK  173  A    between atoms: _442  and  _443
REMARK  174  A    between atoms: _443  and  _444
REMARK  175  A    between atoms: _453  and  _455
REMARK  176  A    between atoms: _455  and  _456
REMARK  177  A    between atoms: _455  and  _458
REMARK  178  A    between atoms: _458  and  _459
REMARK  179  A    between atoms: _465  and  _467
REMARK  180  A    between atoms: _467  and  _468
REMARK  181  A    between atoms: _467  and  _470
REMARK  182  A    between atoms: _470  and  _471
REMARK  183  A    between atoms: _471  and  _472
REMARK  184  A    between atoms: _472  and  _473
REMARK  185  A    between atoms: _473  and  _474
REMARK  186  A    between atoms: _478  and  _480
REMARK  187  A    between atoms: _480  and  _481
REMARK  188  A    between atoms: _480  and  _483
REMARK  189  A    between atoms: _483  and  _484
REMARK  190  A    between atoms: _484  and  _485
REMARK  191  A    between atoms: _490  and  _492
REMARK  192  A    between atoms: _492  and  _493
REMARK  193  A    between atoms: _492  and  _495
REMARK  194  A    between atoms: _495  and  _496
REMARK  195  A    between atoms: _499  and  _501
REMARK  196  A    between atoms: _501  and  _502
REMARK  197  A    between atoms: _501  and  _504
REMARK  198  A    between atoms: _504  and  _505
REMARK  199  A    between atoms: _508  and  _510
REMARK  200  A    between atoms: _510  and  _511
REMARK  201  A    between atoms: _514  and  _516
REMARK  202  A    between atoms: _516  and  _517
REMARK  203  A    between atoms: _516  and  _519
REMARK  204  A    between atoms: _519  and  _520
REMARK  205  A    between atoms: _523  and  _525
REMARK  206  A    between atoms: _525  and  _526
REMARK  207  A    between atoms: _525  and  _528
REMARK  208  A    between atoms: _531  and  _533
REMARK  209  A    between atoms: _533  and  _534
REMARK  210  A    between atoms: _536  and  _538
REMARK  211  A    between atoms: _538  and  _539
REMARK  212  A    between atoms: _538  and  _541
REMARK  213  A    between atoms: _541  and  _542
REMARK  214  A    between atoms: _544  and  _546
REMARK  215  A    between atoms: _546  and  _547
REMARK  216  A    between atoms: _546  and  _549
REMARK  217  A    between atoms: _549  and  _550
REMARK  218  A    between atoms: _556  and  _558
REMARK  219  A    between atoms: _558  and  _559
REMARK  220  A    between atoms: _558  and  _561
REMARK  221  A    between atoms: _561  and  _562
REMARK  222  A    between atoms: _565  and  _567
REMARK  223  A    between atoms: _567  and  _568
REMARK  224  A    between atoms: _570  and  _572
REMARK  225  A    between atoms: _572  and  _573
REMARK  226  A    between atoms: _575  and  _577
REMARK  227  A    between atoms: _577  and  _578
REMARK  228  A    between atoms: _577  and  _580
REMARK  229  A    between atoms: _580  and  _581
REMARK  230  A    between atoms: _586  and  _587
REMARK  231  A    between atoms: _589  and  _591
REMARK  232  A    between atoms: _591  and  _592
REMARK  233  A    between atoms: _594  and  _596
REMARK  234  A    between atoms: _596  and  _597
REMARK  235  A    between atoms: _596  and  _599
REMARK  236  A    between atoms: _599  and  _600
REMARK  237  A    between atoms: _606  and  _608
REMARK  238  A    between atoms: _608  and  _609
REMARK  239  A    between atoms: _608  and  _611
REMARK  240  A    between atoms: _611  and  _612
REMARK  241  A    between atoms: _615  and  _617
REMARK  242  A    between atoms: _617  and  _618
REMARK  243  A    between atoms: _617  and  _620
REMARK  244  A    between atoms: _620  and  _621
REMARK  245  A    between atoms: _621  and  _622
REMARK  246  A    between atoms: _627  and  _629
REMARK  247  A    between atoms: _629  and  _630
REMARK  248  A    between atoms: _633  and  _635
REMARK  249  A    between atoms: _635  and  _636
REMARK  250  A    between atoms: _638  and  _640
REMARK  251  A    between atoms: _640  and  _641
REMARK  252  A    between atoms: _640  and  _643
REMARK  253  A    between atoms: _643  and  _644
REMARK  254  A    between atoms: _644  and  _645
REMARK  255  A    between atoms: _648  and  _650
REMARK  256  A    between atoms: _650  and  _651
REMARK  257  A    between atoms: _650  and  _653
REMARK  258  A    between atoms: _653  and  _654
REMARK  259  A    between atoms: _657  and  _659
REMARK  260  A    between atoms: _659  and  _660
REMARK  261  A    between atoms: _659  and  _662
REMARK  262  A    between atoms: _662  and  _663
REMARK  263  A    between atoms: _663  and  _664
REMARK  264  A    between atoms: _664  and  _665
REMARK  265  A    between atoms: _674  and  _676
REMARK  266  A    between atoms: _676  and  _677
REMARK  267  A    between atoms: _676  and  _679
REMARK  268  A    between atoms: _679  and  _680
REMARK  269  A    between atoms: _685  and  _686
REMARK  270  A    between atoms: _688  and  _690
REMARK  271  A    between atoms: _690  and  _691
REMARK  272  A    between atoms: _693  and  _695
REMARK  273  A    between atoms: _695  and  _696
REMARK  274  A    between atoms: _695  and  _698
REMARK  275  A    between atoms: _698  and  _699
REMARK  276  A    between atoms: _705  and  _707
REMARK  277  A    between atoms: _707  and  _708
REMARK  278  A    between atoms: _707  and  _710
REMARK  279  A    between atoms: _710  and  _711
REMARK  280  A    between atoms: _714  and  _716
REMARK  281  A    between atoms: _716  and  _717
REMARK  282  A    between atoms: _716  and  _719
REMARK  283  A    between atoms: _719  and  _720
REMARK  284  A    between atoms: _720  and  _721
REMARK  285  A    between atoms: _726  and  _728
REMARK  286  A    between atoms: _728  and  _729
REMARK  287  A    between atoms: _728  and  _731
REMARK  288  A    between atoms: _731  and  _732
REMARK  289  A    between atoms: _732  and  _733
REMARK  290  A    between atoms: _733  and  _734
REMARK  291  A    between atoms: _734  and  _735
REMARK                            x       y       z     vdW  Elec       q    Type
REMARK                         _______ _______ _______ _____ _____    ______ ____
ROOT
ATOM      1  O   HOH     1      25.075 -19.824 197.544  0.00  0.00    +0.000 OA
ENDROOT
TORSDOF 0
REMARK  Name = ../refined-set-2016/4qij/4qij_pocket.pdb
REMARK  291 active torsions:
REMARK  status: ('A' for Active; 'I' for Inactive)
REMARK    1  A    between atoms: _1  and  _3
REMARK    2  A    between atoms: _3  and  _4
REMARK    3  A    between atoms: _3  and  _6
REMARK    4  A    between atoms: _6  and  _7
REMARK    5  A    between atoms: _7  and  _8
REMARK    6  A    between atoms: _8  and  _9
REMARK    7  A    between atoms: _19  and  _20
REMARK    8  A    between atoms: _25  and  _27
REMARK    9  A    between atoms: _27  and  _28
REMARK   10  A    between atoms: _27  and  _30
REMARK   11  A    between atoms: _30  and  _31
REMARK   12  A    between atoms: _31  and  _32
REMARK   13  A    between atoms: _35  and  _37
REMARK   14  A    between atoms: _37  and  _38
REMARK   15  A    between atoms: _37  and  _40
REMARK   16  A    between atoms: _43  and  _45
REMARK   17  A    between atoms: _45  and  _46
REMARK   18  A    between atoms: _45  and  _48
REMARK   19  A    between atoms: _48  and  _49
REMARK   20  A    between atoms: _49  and  _50
REMARK   21  A    between atoms: _50  and  _51
REMARK   22  A    between atoms: _60  and  _62
REMARK   23  A    between atoms: _62  and  _63
REMARK   24  A    between atoms: _62  and  _65
REMARK   25  A    between atoms: _65  and  _66
REMARK   26  A    between atoms: _71  and  _73
REMARK   27  A    between atoms: _73  and  _74
REMARK   28  A    between atoms: _77  and  _79
REMARK   29  A    between atoms: _79  and  _80
REMARK   30  A    between atoms: _79  and  _82
REMARK   31  A    between atoms: _82  and  _83
REMARK   32  A    between atoms: _89  and  _91
REMARK   33  A    between atoms: _91  and  _92
REMARK   34  A    between atoms: _91  and  _94
REMARK   35  A    between atoms: _97  and  _99
REMARK   36  A    between atoms: _99  and  _100
REMARK   37  A    between atoms: _99  and  _102
REMARK   38  A    between atoms: _102  and  _103
REMARK   39  A    between atoms: _105  and  _107
REMARK   40  A    between atoms: _107  and  _108
REMARK   41  A    between atoms: _107  and  _110
REMARK   42  A    between atoms: _110  and  _111
REMARK   43  A    between atoms: _111  and  _112
REMARK   44  A    between atoms: _112  and  _113
REMARK   45  A    between atoms: _113  and  _114
REMARK   46  A    between atoms: _118  and  _120
REMARK   47  A    between atoms: _120  and  _121
REMARK   48  A    between atoms: _120  and  _123
REMARK   49  A    between atoms: _123  and  _124
REMARK   50  A    between atoms: _127  and  _129
REMARK   51  A    between atoms: _129  and  _130
REMARK   52  A    between atoms: _132  and  _134
REMARK   53  A    between atoms: _134  and  _135
REMARK   54  A    between atoms: _134  and  _137
REMARK   55  A    between atoms: _137  and  _138
REMARK   56  A    between atoms: _148  and  _150
REMARK   57  A    between atoms: _150  and  _151
REMARK   58  A    between atoms: _154  and  _156
REMARK   59  A    between atoms: _156  and  _157
REMARK   60  A    between atoms: _156  and  _159
REMARK   61  A    between atoms: _159  and  _160
REMARK   62  A    between atoms: _166  and  _168
REMARK   63  A    between atoms: _168  and  _169
REMARK   64  A    between atoms: _168  and  _171
REMARK   65  A    between atoms: _173  and  _175
REMARK   66  A    between atoms: _175  and  _176
REMARK   67  A    between atoms: _175  and  _178
REMARK   68  A    between atoms: _178  and  _179
REMARK   69  A    between atoms: _181  and  _183
REMARK   70  A    between atoms: _183  and  _184
REMARK   71  A    between atoms: _186  and  _188
REMARK   72  A    between atoms: _188  and  _189
REMARK   73  A    between atoms: _191  and  _193
REMARK   74  A    between atoms: _193  and  _194
REMARK   75  A    between atoms: _193  and  _196
REMARK   76  A    between atoms: _196  and  _197
REMARK   77  A    between atoms: _200  and  _202
REMARK   78  A    between atoms: _202  and  _203
REMARK   79  A    between atoms: _202  and  _205
REMARK   80  A    between atoms: _205  and  _206
REMARK   81  A    between atoms: _206  and  _207
REMARK   82  A    between atoms: _212  and  _214
REMARK   83  A    between atoms: _214  and  _215
REMARK   84  A    between atoms: _214  and  _217
REMARK   85  A    between atoms: _217  and  _218
REMARK   86  A    between atoms: _218  and  _219
REMARK   87  A    between atoms: _219  and  _220
REMARK   88  A    between atoms: _229  and  _231
REMARK   89  A    between atoms: _231  and  _232
REMARK   90  A    between atoms: _231  and  _234
REMARK   91  A    between atoms: _234  and  _235
REMARK   92  A    between atoms: _238  and  _240
REMARK   93  A    between atoms: _240  and  _241
REMARK   94  A    between atoms: _240  and  _243
REMARK   95  A    between atoms: _243  and  _244
REMARK   96  A    between atoms: _244  and  _245
REMARK   97  A    between atoms: _245  and  _246
REMARK   98  A    between atoms: _255  and  _257
REMARK   99  A    between atoms: _257  and  _258
REMARK  100  A    between atoms: _260  and  _262
REMARK  101  A    between atoms: _262  and  _263
REMARK  102  A    between atoms: _262  and  _265
REMARK  103  A    between atoms: _265  and  _266
REMARK  104  A    between atoms: _271  and  _272
REMARK  105  A    between atoms: _274  and  _276
REMARK  106  A    between atoms: _276  and  _277
REMARK  107  A    between atoms: _276  and  _279
REMARK  108  A    between atoms: _279  and  _280
REMARK  109  A    between atoms: _283  and  _285
REMARK  110  A    between atoms: _285  and  _286
REMARK  111  A    between atoms: _285  and  _288
REMARK  112  A    between atoms: _288  and  _289
REMARK  113  A    between atoms: _289  and  _290
REMARK  114  A    between atoms: _290  and  _291
REMARK  115  A    between atoms: _300  and  _302
REMARK  116  A    between atoms: _302  and  _303
REMARK  117  A    between atoms: _302  and  _305
REMARK  118  A    between atoms: _305  and  _306
REMARK  119  A    between atoms: _309  and  _311
REMARK  120  A    between atoms: _311  and  _312
REMARK  121  A    between atoms: _311  and  _314
REMARK  122  A    between atoms: _314  and  _315
REMARK  123  A    between atoms: _320  and  _322
REMARK  124  A    between atoms: _322  and  _323
REMARK  125  A    between atoms: _322  and  _325
REMARK  126  A    between atoms: _325  and  _326
REMARK  127  A    between atoms: _329  and  _331
REMARK  128  A    between atoms: _331  and  _332
REMARK  129  A    between atoms: _331  and  _334
REMARK  130  A    between atoms: _334  and  _335
REMARK  131  A    between atoms: _338  and  _340
REMARK  132  A    between atoms: _340  and  _341
REMARK  133  A    between atoms: _340  and  _343
REMARK  134  A    between atoms: _343  and  _344
REMARK  135  A    between atoms: _344  and  _345
REMARK  136  A    between atoms: _348  and  _350
REMARK  137  A    between atoms: _350  and  _351
REMARK  138  A    between atoms: _350  and  _353
REMARK  139  A    between atoms: _353  and  _354
REMARK  140  A    between atoms: _354  and  _355
REMARK  141  A    between atoms: _360  and  _362
REMARK  142  A    between atoms: _362  and  _363
REMARK  143  A    between atoms: _365  and  _367
REMARK  144  A    between atoms: _367  and  _368
REMARK  145  A    between atoms: _367  and  _370
REMARK  146  A    between atoms: _370  and  _371
REMARK  147  A    between atoms: _381  and  _383
REMARK  148  A    between atoms: _383  and  _384
REMARK  149  A    between atoms: _387  and  _389
REMARK  150  A    between atoms: _389  and  _390
REMARK  151  A    between atoms: _393  and  _395
REMARK  152  A    between atoms: _395  and  _396
REMARK  153  A    between atoms: _398  and  _400
REMARK  154  A    between atoms: _400  and  _401
REMARK  155  A    between atoms: _403  and  _405
REMARK  156  A    between atoms: _405  and  _406
REMARK  157  A    between atoms: _408  and  _410
REMARK  158  A    between atoms: _410  and  _411
REMARK  159  A    between atoms: _410  and  _413
REMARK  160  A    between atoms: _413  and  _414
REMARK  161  A    between atoms: _419  and  _421
REMARK  162  A    between atoms: _421  and  _422
REMARK  163  A    between atoms: _421  and  _424
REMARK  164  A    between atoms: _424  and  _425
REMARK  165  A    between atoms: _427  and  _429
REMARK  166  A    between atoms: _429  and  _430
REMARK  167  A    between atoms: _429  and  _432
REMARK  168  A    between atoms: _432  and  _433
REMARK  169  A    between atoms: _436  and  _438
REMARK  170  A    between atoms: _438  and  _439
REMARK  171  A    between atoms: _438  and  _441
REMARK  172  A    between atoms: _441  and  _442
REMARK  173  A    between atoms: _442  and  _443
REMARK  174  A    between atoms: _443  and  _444
REMARK  175  A    between atoms: _453  and  _455
REMARK  176  A    between atoms: _455  and  _456
REMARK  177  A    between atoms: _455  and  _458
REMARK  178  A    between atoms: _458  and  _459
REMARK  179  A    between atoms: _465  and  _467
REMARK  180  A    between atoms: _467  and  _468
REMARK  181  A    between atoms: _467  and  _470
REMARK  182  A    between atoms: _470  and  _471
REMARK  183  A    between atoms: _471  and  _472
REMARK  184  A    between atoms: _472  and  _473
REMARK  185  A    between atoms: _473  and  _474
REMARK  186  A    between atoms: _478  and  _480
REMARK  187  A    between atoms: _480  and  _481
REMARK  188  A    between atoms: _480  and  _483
REMARK  189  A    between atoms: _483  and  _484
REMARK  190  A    between atoms: _484  and  _485
REMARK  191  A    between atoms: _490  and  _492
REMARK  192  A    between atoms: _492  and  _493
REMARK  193  A    between atoms: _492  and  _495
REMARK  194  A    between atoms: _495  and  _496
REMARK  195  A    between atoms: _499  and  _501
REMARK  196  A    between atoms: _501  and  _502
REMARK  197  A    between atoms: _501  and  _504
REMARK  198  A    between atoms: _504  and  _505
REMARK  199  A    between atoms: _508  and  _510
REMARK  200  A    between atoms: _510  and  _511
REMARK  201  A    between atoms: _514  and  _516
REMARK  202  A    between atoms: _516  and  _517
REMARK  203  A    between atoms: _516  and  _519
REMARK  204  A    between atoms: _519  and  _520
REMARK  205  A    between atoms: _523  and  _525
REMARK  206  A    between atoms: _525  and  _526
REMARK  207  A    between atoms: _525  and  _528
REMARK  208  A    between atoms: _531  and  _533
REMARK  209  A    between atoms: _533  and  _534
REMARK  210  A    between atoms: _536  and  _538
REMARK  211  A    between atoms: _538  and  _539
REMARK  212  A    between atoms: _538  and  _541
REMARK  213  A    between atoms: _541  and  _542
REMARK  214  A    between atoms: _544  and  _546
REMARK  215  A    between atoms: _546  and  _547
REMARK  216  A    between atoms: _546  and  _549
REMARK  217  A    between atoms: _549  and  _550
REMARK  218  A    between atoms: _556  and  _558
REMARK  219  A    between atoms: _558  and  _559
REMARK  220  A    between atoms: _558  and  _561
REMARK  221  A    between atoms: _561  and  _562
REMARK  222  A    between atoms: _565  and  _567
REMARK  223  A    between atoms: _567  and  _568
REMARK  224  A    between atoms: _570  and  _572
REMARK  225  A    between atoms: _572  and  _573
REMARK  226  A    between atoms: _575  and  _577
REMARK  227  A    between atoms: _577  and  _578
REMARK  228  A    between atoms: _577  and  _580
REMARK  229  A    between atoms: _580  and  _581
REMARK  230  A    between atoms: _586  and  _587
REMARK  231  A    between atoms: _589  and  _591
REMARK  232  A    between atoms: _591  and  _592
REMARK  233  A    between atoms: _594  and  _596
REMARK  234  A    between atoms: _596  and  _597
REMARK  235  A    between atoms: _596  and  _599
REMARK  236  A    between atoms: _599  and  _600
REMARK  237  A    between atoms: _606  and  _608
REMARK  238  A    between atoms: _608  and  _609
REMARK  239  A    between atoms: _608  and  _611
REMARK  240  A    between atoms: _611  and  _612
REMARK  241  A    between atoms: _615  and  _617
REMARK  242  A    between atoms: _617  and  _618
REMARK  243  A    between atoms: _617  and  _620
REMARK  244  A    between atoms: _620  and  _621
REMARK  245  A    between atoms: _621  and  _622
REMARK  246  A    between atoms: _627  and  _629
REMARK  247  A    between atoms: _629  and  _630
REMARK  248  A    between atoms: _633  and  _635
REMARK  249  A    between atoms: _635  and  _636
REMARK  250  A    between atoms: _638  and  _640
REMARK  251  A    between atoms: _640  and  _641
REMARK  252  A    between atoms: _640  and  _643
REMARK  253  A    between atoms: _643  and  _644
REMARK  254  A    between atoms: _644  and  _645
REMARK  255  A    between atoms: _648  and  _650
REMARK  256  A    between atoms: _650  and  _651
REMARK  257  A    between atoms: _650  and  _653
REMARK  258  A    between atoms: _653  and  _654
REMARK  259  A    between atoms: _657  and  _659
REMARK  260  A    between atoms: _659  and  _660
REMARK  261  A    between atoms: _659  and  _662
REMARK  262  A    between atoms: _662  and  _663
REMARK  263  A    between atoms: _663  and  _664
REMARK  264  A    between atoms: _664  and  _665
REMARK  265  A    between atoms: _674  and  _676
REMARK  266  A    between atoms: _676  and  _677
REMARK  267  A    between atoms: _676  and  _679
REMARK  268  A    between atoms: _679  and  _680
REMARK  269  A    between atoms: _685  and  _686
REMARK  270  A    between atoms: _688  and  _690
REMARK  271  A    between atoms: _690  and  _691
REMARK  272  A    between atoms: _693  and  _695
REMARK  273  A    between atoms: _695  and  _696
REMARK  274  A    between atoms: _695  and  _698
REMARK  275  A    between atoms: _698  and  _699
REMARK  276  A    between atoms: _705  and  _707
REMARK  277  A    between atoms: _707  and  _708
REMARK  278  A    between atoms: _707  and  _710
REMARK  279  A    between atoms: _710  and  _711
REMARK  280  A    between atoms: _714  and  _716
REMARK  281  A    between atoms: _716  and  _717
REMARK  282  A    between atoms: _716  and  _719
REMARK  283  A    between atoms: _719  and  _720
REMARK  284  A    between atoms: _720  and  _721
REMARK  285  A    between atoms: _726  and  _728
REMARK  286  A    between atoms: _728  and  _729
REMARK  287  A    between atoms: _728  and  _731
REMARK  288  A    between atoms: _731  and  _732
REMARK  289  A    between atoms: _732  and  _733
REMARK  290  A    between atoms: _733  and  _734
REMARK  291  A    between atoms: _734  and  _735
REMARK                            x       y       z     vdW  Elec       q    Type
REMARK                         _______ _______ _______ _____ _____    ______ ____
ROOT
ATOM      1  O   HOH     1      24.768 -20.055 200.152  0.00  0.00    +0.000 OA
ENDROOT
TORSDOF 0
REMARK  Name = ../refined-set-2016/4qij/4qij_pocket.pdb
REMARK  291 active torsions:
REMARK  status: ('A' for Active; 'I' for Inactive)
REMARK    1  A    between atoms: _1  and  _3
REMARK    2  A    between atoms: _3  and  _4
REMARK    3  A    between atoms: _3  and  _6
REMARK    4  A    between atoms: _6  and  _7
REMARK    5  A    between atoms: _7  and  _8
REMARK    6  A    between atoms: _8  and  _9
REMARK    7  A    between atoms: _19  and  _20
REMARK    8  A    between atoms: _25  and  _27
REMARK    9  A    between atoms: _27  and  _28
REMARK   10  A    between atoms: _27  and  _30
REMARK   11  A    between atoms: _30  and  _31
REMARK   12  A    between atoms: _31  and  _32
REMARK   13  A    between atoms: _35  and  _37
REMARK   14  A    between atoms: _37  and  _38
REMARK   15  A    between atoms: _37  and  _40
REMARK   16  A    between atoms: _43  and  _45
REMARK   17  A    between atoms: _45  and  _46
REMARK   18  A    between atoms: _45  and  _48
REMARK   19  A    between atoms: _48  and  _49
REMARK   20  A    between atoms: _49  and  _50
REMARK   21  A    between atoms: _50  and  _51
REMARK   22  A    between atoms: _60  and  _62
REMARK   23  A    between atoms: _62  and  _63
REMARK   24  A    between atoms: _62  and  _65
REMARK   25  A    between atoms: _65  and  _66
REMARK   26  A    between atoms: _71  and  _73
REMARK   27  A    between atoms: _73  and  _74
REMARK   28  A    between atoms: _77  and  _79
REMARK   29  A    between atoms: _79  and  _80
REMARK   30  A    between atoms: _79  and  _82
REMARK   31  A    between atoms: _82  and  _83
REMARK   32  A    between atoms: _89  and  _91
REMARK   33  A    between atoms: _91  and  _92
REMARK   34  A    between atoms: _91  and  _94
REMARK   35  A    between atoms: _97  and  _99
REMARK   36  A    between atoms: _99  and  _100
REMARK   37  A    between atoms: _99  and  _102
REMARK   38  A    between atoms: _102  and  _103
REMARK   39  A    between atoms: _105  and  _107
REMARK   40  A    between atoms: _107  and  _108
REMARK   41  A    between atoms: _107  and  _110
REMARK   42  A    between atoms: _110  and  _111
REMARK   43  A    between atoms: _111  and  _112
REMARK   44  A    between atoms: _112  and  _113
REMARK   45  A    between atoms: _113  and  _114
REMARK   46  A    between atoms: _118  and  _120
REMARK   47  A    between atoms: _120  and  _121
REMARK   48  A    between atoms: _120  and  _123
REMARK   49  A    between atoms: _123  and  _124
REMARK   50  A    between atoms: _127  and  _129
REMARK   51  A    between atoms: _129  and  _130
REMARK   52  A    between atoms: _132  and  _134
REMARK   53  A    between atoms: _134  and  _135
REMARK   54  A    between atoms: _134  and  _137
REMARK   55  A    between atoms: _137  and  _138
REMARK   56  A    between atoms: _148  and  _150
REMARK   57  A    between atoms: _150  and  _151
REMARK   58  A    between atoms: _154  and  _156
REMARK   59  A    between atoms: _156  and  _157
REMARK   60  A    between atoms: _156  and  _159
REMARK   61  A    between atoms: _159  and  _160
REMARK   62  A    between atoms: _166  and  _168
REMARK   63  A    between atoms: _168  and  _169
REMARK   64  A    between atoms: _168  and  _171
REMARK   65  A    between atoms: _173  and  _175
REMARK   66  A    between atoms: _175  and  _176
REMARK   67  A    between atoms: _175  and  _178
REMARK   68  A    between atoms: _178  and  _179
REMARK   69  A    between atoms: _181  and  _183
REMARK   70  A    between atoms: _183  and  _184
REMARK   71  A    between atoms: _186  and  _188
REMARK   72  A    between atoms: _188  and  _189
REMARK   73  A    between atoms: _191  and  _193
REMARK   74  A    between atoms: _193  and  _194
REMARK   75  A    between atoms: _193  and  _196
REMARK   76  A    between atoms: _196  and  _197
REMARK   77  A    between atoms: _200  and  _202
REMARK   78  A    between atoms: _202  and  _203
REMARK   79  A    between atoms: _202  and  _205
REMARK   80  A    between atoms: _205  and  _206
REMARK   81  A    between atoms: _206  and  _207
REMARK   82  A    between atoms: _212  and  _214
REMARK   83  A    between atoms: _214  and  _215
REMARK   84  A    between atoms: _214  and  _217
REMARK   85  A    between atoms: _217  and  _218
REMARK   86  A    between atoms: _218  and  _219
REMARK   87  A    between atoms: _219  and  _220
REMARK   88  A    between atoms: _229  and  _231
REMARK   89  A    between atoms: _231  and  _232
REMARK   90  A    between atoms: _231  and  _234
REMARK   91  A    between atoms: _234  and  _235
REMARK   92  A    between atoms: _238  and  _240
REMARK   93  A    between atoms: _240  and  _241
REMARK   94  A    between atoms: _240  and  _243
REMARK   95  A    between atoms: _243  and  _244
REMARK   96  A    between atoms: _244  and  _245
REMARK   97  A    between atoms: _245  and  _246
REMARK   98  A    between atoms: _255  and  _257
REMARK   99  A    between atoms: _257  and  _258
REMARK  100  A    between atoms: _260  and  _262
REMARK  101  A    between atoms: _262  and  _263
REMARK  102  A    between atoms: _262  and  _265
REMARK  103  A    between atoms: _265  and  _266
REMARK  104  A    between atoms: _271  and  _272
REMARK  105  A    between atoms: _274  and  _276
REMARK  106  A    between atoms: _276  and  _277
REMARK  107  A    between atoms: _276  and  _279
REMARK  108  A    between atoms: _279  and  _280
REMARK  109  A    between atoms: _283  and  _285
REMARK  110  A    between atoms: _285  and  _286
REMARK  111  A    between atoms: _285  and  _288
REMARK  112  A    between atoms: _288  and  _289
REMARK  113  A    between atoms: _289  and  _290
REMARK  114  A    between atoms: _290  and  _291
REMARK  115  A    between atoms: _300  and  _302
REMARK  116  A    between atoms: _302  and  _303
REMARK  117  A    between atoms: _302  and  _305
REMARK  118  A    between atoms: _305  and  _306
REMARK  119  A    between atoms: _309  and  _311
REMARK  120  A    between atoms: _311  and  _312
REMARK  121  A    between atoms: _311  and  _314
REMARK  122  A    between atoms: _314  and  _315
REMARK  123  A    between atoms: _320  and  _322
REMARK  124  A    between atoms: _322  and  _323
REMARK  125  A    between atoms: _322  and  _325
REMARK  126  A    between atoms: _325  and  _326
REMARK  127  A    between atoms: _329  and  _331
REMARK  128  A    between atoms: _331  and  _332
REMARK  129  A    between atoms: _331  and  _334
REMARK  130  A    between atoms: _334  and  _335
REMARK  131  A    between atoms: _338  and  _340
REMARK  132  A    between atoms: _340  and  _341
REMARK  133  A    between atoms: _340  and  _343
REMARK  134  A    between atoms: _343  and  _344
REMARK  135  A    between atoms: _344  and  _345
REMARK  136  A    between atoms: _348  and  _350
REMARK  137  A    between atoms: _350  and  _351
REMARK  138  A    between atoms: _350  and  _353
REMARK  139  A    between atoms: _353  and  _354
REMARK  140  A    between atoms: _354  and  _355
REMARK  141  A    between atoms: _360  and  _362
REMARK  142  A    between atoms: _362  and  _363
REMARK  143  A    between atoms: _365  and  _367
REMARK  144  A    between atoms: _367  and  _368
REMARK  145  A    between atoms: _367  and  _370
REMARK  146  A    between atoms: _370  and  _371
REMARK  147  A    between atoms: _381  and  _383
REMARK  148  A    between atoms: _383  and  _384
REMARK  149  A    between atoms: _387  and  _389
REMARK  150  A    between atoms: _389  and  _390
REMARK  151  A    between atoms: _393  and  _395
REMARK  152  A    between atoms: _395  and  _396
REMARK  153  A    between atoms: _398  and  _400
REMARK  154  A    between atoms: _400  and  _401
REMARK  155  A    between atoms: _403  and  _405
REMARK  156  A    between atoms: _405  and  _406
REMARK  157  A    between atoms: _408  and  _410
REMARK  158  A    between atoms: _410  and  _411
REMARK  159  A    between atoms: _410  and  _413
REMARK  160  A    between atoms: _413  and  _414
REMARK  161  A    between atoms: _419  and  _421
REMARK  162  A    between atoms: _421  and  _422
REMARK  163  A    between atoms: _421  and  _424
REMARK  164  A    between atoms: _424  and  _425
REMARK  165  A    between atoms: _427  and  _429
REMARK  166  A    between atoms: _429  and  _430
REMARK  167  A    between atoms: _429  and  _432
REMARK  168  A    between atoms: _432  and  _433
REMARK  169  A    between atoms: _436  and  _438
REMARK  170  A    between atoms: _438  and  _439
REMARK  171  A    between atoms: _438  and  _441
REMARK  172  A    between atoms: _441  and  _442
REMARK  173  A    between atoms: _442  and  _443
REMARK  174  A    between atoms: _443  and  _444
REMARK  175  A    between atoms: _453  and  _455
REMARK  176  A    between atoms: _455  and  _456
REMARK  177  A    between atoms: _455  and  _458
REMARK  178  A    between atoms: _458  and  _459
REMARK  179  A    between atoms: _465  and  _467
REMARK  180  A    between atoms: _467  and  _468
REMARK  181  A    between atoms: _467  and  _470
REMARK  182  A    between atoms: _470  and  _471
REMARK  183  A    between atoms: _471  and  _472
REMARK  184  A    between atoms: _472  and  _473
REMARK  185  A    between atoms: _473  and  _474
REMARK  186  A    between atoms: _478  and  _480
REMARK  187  A    between atoms: _480  and  _481
REMARK  188  A    between atoms: _480  and  _483
REMARK  189  A    between atoms: _483  and  _484
REMARK  190  A    between atoms: _484  and  _485
REMARK  191  A    between atoms: _490  and  _492
REMARK  192  A    between atoms: _492  and  _493
REMARK  193  A    between atoms: _492  and  _495
REMARK  194  A    between atoms: _495  and  _496
REMARK  195  A    between atoms: _499  and  _501
REMARK  196  A    between atoms: _501  and  _502
REMARK  197  A    between atoms: _501  and  _504
REMARK  198  A    between atoms: _504  and  _505
REMARK  199  A    between atoms: _508  and  _510
REMARK  200  A    between atoms: _510  and  _511
REMARK  201  A    between atoms: _514  and  _516
REMARK  202  A    between atoms: _516  and  _517
REMARK  203  A    between atoms: _516  and  _519
REMARK  204  A    between atoms: _519  and  _520
REMARK  205  A    between atoms: _523  and  _525
REMARK  206  A    between atoms: _525  and  _526
REMARK  207  A    between atoms: _525  and  _528
REMARK  208  A    between atoms: _531  and  _533
REMARK  209  A    between atoms: _533  and  _534
REMARK  210  A    between atoms: _536  and  _538
REMARK  211  A    between atoms: _538  and  _539
REMARK  212  A    between atoms: _538  and  _541
REMARK  213  A    between atoms: _541  and  _542
REMARK  214  A    between atoms: _544  and  _546
REMARK  215  A    between atoms: _546  and  _547
REMARK  216  A    between atoms: _546  and  _549
REMARK  217  A    between atoms: _549  and  _550
REMARK  218  A    between atoms: _556  and  _558
REMARK  219  A    between atoms: _558  and  _559
REMARK  220  A    between atoms: _558  and  _561
REMARK  221  A    between atoms: _561  and  _562
REMARK  222  A    between atoms: _565  and  _567
REMARK  223  A    between atoms: _567  and  _568
REMARK  224  A    between atoms: _570  and  _572
REMARK  225  A    between atoms: _572  and  _573
REMARK  226  A    between atoms: _575  and  _577
REMARK  227  A    between atoms: _577  and  _578
REMARK  228  A    between atoms: _577  and  _580
REMARK  229  A    between atoms: _580  and  _581
REMARK  230  A    between atoms: _586  and  _587
REMARK  231  A    between atoms: _589  and  _591
REMARK  232  A    between atoms: _591  and  _592
REMARK  233  A    between atoms: _594  and  _596
REMARK  234  A    between atoms: _596  and  _597
REMARK  235  A    between atoms: _596  and  _599
REMARK  236  A    between atoms: _599  and  _600
REMARK  237  A    between atoms: _606  and  _608
REMARK  238  A    between atoms: _608  and  _609
REMARK  239  A    between atoms: _608  and  _611
REMARK  240  A    between atoms: _611  and  _612
REMARK  241  A    between atoms: _615  and  _617
REMARK  242  A    between atoms: _617  and  _618
REMARK  243  A    between atoms: _617  and  _620
REMARK  244  A    between atoms: _620  and  _621
REMARK  245  A    between atoms: _621  and  _622
REMARK  246  A    between atoms: _627  and  _629
REMARK  247  A    between atoms: _629  and  _630
REMARK  248  A    between atoms: _633  and  _635
REMARK  249  A    between atoms: _635  and  _636
REMARK  250  A    between atoms: _638  and  _640
REMARK  251  A    between atoms: _640  and  _641
REMARK  252  A    between atoms: _640  and  _643
REMARK  253  A    between atoms: _643  and  _644
REMARK  254  A    between atoms: _644  and  _645
REMARK  255  A    between atoms: _648  and  _650
REMARK  256  A    between atoms: _650  and  _651
REMARK  257  A    between atoms: _650  and  _653
REMARK  258  A    between atoms: _653  and  _654
REMARK  259  A    between atoms: _657  and  _659
REMARK  260  A    between atoms: _659  and  _660
REMARK  261  A    between atoms: _659  and  _662
REMARK  262  A    between atoms: _662  and  _663
REMARK  263  A    between atoms: _663  and  _664
REMARK  264  A    between atoms: _664  and  _665
REMARK  265  A    between atoms: _674  and  _676
REMARK  266  A    between atoms: _676  and  _677
REMARK  267  A    between atoms: _676  and  _679
REMARK  268  A    between atoms: _679  and  _680
REMARK  269  A    between atoms: _685  and  _686
REMARK  270  A    between atoms: _688  and  _690
REMARK  271  A    between atoms: _690  and  _691
REMARK  272  A    between atoms: _693  and  _695
REMARK  273  A    between atoms: _695  and  _696
REMARK  274  A    between atoms: _695  and  _698
REMARK  275  A    between atoms: _698  and  _699
REMARK  276  A    between atoms: _705  and  _707
REMARK  277  A    between atoms: _707  and  _708
REMARK  278  A    between atoms: _707  and  _710
REMARK  279  A    between atoms: _710  and  _711
REMARK  280  A    between atoms: _714  and  _716
REMARK  281  A    between atoms: _716  and  _717
REMARK  282  A    between atoms: _716  and  _719
REMARK  283  A    between atoms: _719  and  _720
REMARK  284  A    between atoms: _720  and  _721
REMARK  285  A    between atoms: _726  and  _728
REMARK  286  A    between atoms: _728  and  _729
REMARK  287  A    between atoms: _728  and  _731
REMARK  288  A    between atoms: _731  and  _732
REMARK  289  A    between atoms: _732  and  _733
REMARK  290  A    between atoms: _733  and  _734
REMARK  291  A    between atoms: _734  and  _735
REMARK                            x       y       z     vdW  Elec       q    Type
REMARK                         _______ _______ _______ _____ _____    ______ ____
ROOT
ATOM      1  O   HOH     1      37.510 -18.938 196.487  0.00  0.00    +0.000 OA
ENDROOT
TORSDOF 0
REMARK  Name = ../refined-set-2016/4qij/4qij_pocket.pdb
REMARK  291 active torsions:
REMARK  status: ('A' for Active; 'I' for Inactive)
REMARK    1  A    between atoms: _1  and  _3
REMARK    2  A    between atoms: _3  and  _4
REMARK    3  A    between atoms: _3  and  _6
REMARK    4  A    between atoms: _6  and  _7
REMARK    5  A    between atoms: _7  and  _8
REMARK    6  A    between atoms: _8  and  _9
REMARK    7  A    between atoms: _19  and  _20
REMARK    8  A    between atoms: _25  and  _27
REMARK    9  A    between atoms: _27  and  _28
REMARK   10  A    between atoms: _27  and  _30
REMARK   11  A    between atoms: _30  and  _31
REMARK   12  A    between atoms: _31  and  _32
REMARK   13  A    between atoms: _35  and  _37
REMARK   14  A    between atoms: _37  and  _38
REMARK   15  A    between atoms: _37  and  _40
REMARK   16  A    between atoms: _43  and  _45
REMARK   17  A    between atoms: _45  and  _46
REMARK   18  A    between atoms: _45  and  _48
REMARK   19  A    between atoms: _48  and  _49
REMARK   20  A    between atoms: _49  and  _50
REMARK   21  A    between atoms: _50  and  _51
REMARK   22  A    between atoms: _60  and  _62
REMARK   23  A    between atoms: _62  and  _63
REMARK   24  A    between atoms: _62  and  _65
REMARK   25  A    between atoms: _65  and  _66
REMARK   26  A    between atoms: _71  and  _73
REMARK   27  A    between atoms: _73  and  _74
REMARK   28  A    between atoms: _77  and  _79
REMARK   29  A    between atoms: _79  and  _80
REMARK   30  A    between atoms: _79  and  _82
REMARK   31  A    between atoms: _82  and  _83
REMARK   32  A    between atoms: _89  and  _91
REMARK   33  A    between atoms: _91  and  _92
REMARK   34  A    between atoms: _91  and  _94
REMARK   35  A    between atoms: _97  and  _99
REMARK   36  A    between atoms: _99  and  _100
REMARK   37  A    between atoms: _99  and  _102
REMARK   38  A    between atoms: _102  and  _103
REMARK   39  A    between atoms: _105  and  _107
REMARK   40  A    between atoms: _107  and  _108
REMARK   41  A    between atoms: _107  and  _110
REMARK   42  A    between atoms: _110  and  _111
REMARK   43  A    between atoms: _111  and  _112
REMARK   44  A    between atoms: _112  and  _113
REMARK   45  A    between atoms: _113  and  _114
REMARK   46  A    between atoms: _118  and  _120
REMARK   47  A    between atoms: _120  and  _121
REMARK   48  A    between atoms: _120  and  _123
REMARK   49  A    between atoms: _123  and  _124
REMARK   50  A    between atoms: _127  and  _129
REMARK   51  A    between atoms: _129  and  _130
REMARK   52  A    between atoms: _132  and  _134
REMARK   53  A    between atoms: _134  and  _135
REMARK   54  A    between atoms: _134  and  _137
REMARK   55  A    between atoms: _137  and  _138
REMARK   56  A    between atoms: _148  and  _150
REMARK   57  A    between atoms: _150  and  _151
REMARK   58  A    between atoms: _154  and  _156
REMARK   59  A    between atoms: _156  and  _157
REMARK   60  A    between atoms: _156  and  _159
REMARK   61  A    between atoms: _159  and  _160
REMARK   62  A    between atoms: _166  and  _168
REMARK   63  A    between atoms: _168  and  _169
REMARK   64  A    between atoms: _168  and  _171
REMARK   65  A    between atoms: _173  and  _175
REMARK   66  A    between atoms: _175  and  _176
REMARK   67  A    between atoms: _175  and  _178
REMARK   68  A    between atoms: _178  and  _179
REMARK   69  A    between atoms: _181  and  _183
REMARK   70  A    between atoms: _183  and  _184
REMARK   71  A    between atoms: _186  and  _188
REMARK   72  A    between atoms: _188  and  _189
REMARK   73  A    between atoms: _191  and  _193
REMARK   74  A    between atoms: _193  and  _194
REMARK   75  A    between atoms: _193  and  _196
REMARK   76  A    between atoms: _196  and  _197
REMARK   77  A    between atoms: _200  and  _202
REMARK   78  A    between atoms: _202  and  _203
REMARK   79  A    between atoms: _202  and  _205
REMARK   80  A    between atoms: _205  and  _206
REMARK   81  A    between atoms: _206  and  _207
REMARK   82  A    between atoms: _212  and  _214
REMARK   83  A    between atoms: _214  and  _215
REMARK   84  A    between atoms: _214  and  _217
REMARK   85  A    between atoms: _217  and  _218
REMARK   86  A    between atoms: _218  and  _219
REMARK   87  A    between atoms: _219  and  _220
REMARK   88  A    between atoms: _229  and  _231
REMARK   89  A    between atoms: _231  and  _232
REMARK   90  A    between atoms: _231  and  _234
REMARK   91  A    between atoms: _234  and  _235
REMARK   92  A    between atoms: _238  and  _240
REMARK   93  A    between atoms: _240  and  _241
REMARK   94  A    between atoms: _240  and  _243
REMARK   95  A    between atoms: _243  and  _244
REMARK   96  A    between atoms: _244  and  _245
REMARK   97  A    between atoms: _245  and  _246
REMARK   98  A    between atoms: _255  and  _257
REMARK   99  A    between atoms: _257  and  _258
REMARK  100  A    between atoms: _260  and  _262
REMARK  101  A    between atoms: _262  and  _263
REMARK  102  A    between atoms: _262  and  _265
REMARK  103  A    between atoms: _265  and  _266
REMARK  104  A    between atoms: _271  and  _272
REMARK  105  A    between atoms: _274  and  _276
REMARK  106  A    between atoms: _276  and  _277
REMARK  107  A    between atoms: _276  and  _279
REMARK  108  A    between atoms: _279  and  _280
REMARK  109  A    between atoms: _283  and  _285
REMARK  110  A    between atoms: _285  and  _286
REMARK  111  A    between atoms: _285  and  _288
REMARK  112  A    between atoms: _288  and  _289
REMARK  113  A    between atoms: _289  and  _290
REMARK  114  A    between atoms: _290  and  _291
REMARK  115  A    between atoms: _300  and  _302
REMARK  116  A    between atoms: _302  and  _303
REMARK  117  A    between atoms: _302  and  _305
REMARK  118  A    between atoms: _305  and  _306
REMARK  119  A    between atoms: _309  and  _311
REMARK  120  A    between atoms: _311  and  _312
REMARK  121  A    between atoms: _311  and  _314
REMARK  122  A    between atoms: _314  and  _315
REMARK  123  A    between atoms: _320  and  _322
REMARK  124  A    between atoms: _322  and  _323
REMARK  125  A    between atoms: _322  and  _325
REMARK  126  A    between atoms: _325  and  _326
REMARK  127  A    between atoms: _329  and  _331
REMARK  128  A    between atoms: _331  and  _332
REMARK  129  A    between atoms: _331  and  _334
REMARK  130  A    between atoms: _334  and  _335
REMARK  131  A    between atoms: _338  and  _340
REMARK  132  A    between atoms: _340  and  _341
REMARK  133  A    between atoms: _340  and  _343
REMARK  134  A    between atoms: _343  and  _344
REMARK  135  A    between atoms: _344  and  _345
REMARK  136  A    between atoms: _348  and  _350
REMARK  137  A    between atoms: _350  and  _351
REMARK  138  A    between atoms: _350  and  _353
REMARK  139  A    between atoms: _353  and  _354
REMARK  140  A    between atoms: _354  and  _355
REMARK  141  A    between atoms: _360  and  _362
REMARK  142  A    between atoms: _362  and  _363
REMARK  143  A    between atoms: _365  and  _367
REMARK  144  A    between atoms: _367  and  _368
REMARK  145  A    between atoms: _367  and  _370
REMARK  146  A    between atoms: _370  and  _371
REMARK  147  A    between atoms: _381  and  _383
REMARK  148  A    between atoms: _383  and  _384
REMARK  149  A    between atoms: _387  and  _389
REMARK  150  A    between atoms: _389  and  _390
REMARK  151  A    between atoms: _393  and  _395
REMARK  152  A    between atoms: _395  and  _396
REMARK  153  A    between atoms: _398  and  _400
REMARK  154  A    between atoms: _400  and  _401
REMARK  155  A    between atoms: _403  and  _405
REMARK  156  A    between atoms: _405  and  _406
REMARK  157  A    between atoms: _408  and  _410
REMARK  158  A    between atoms: _410  and  _411
REMARK  159  A    between atoms: _410  and  _413
REMARK  160  A    between atoms: _413  and  _414
REMARK  161  A    between atoms: _419  and  _421
REMARK  162  A    between atoms: _421  and  _422
REMARK  163  A    between atoms: _421  and  _424
REMARK  164  A    between atoms: _424  and  _425
REMARK  165  A    between atoms: _427  and  _429
REMARK  166  A    between atoms: _429  and  _430
REMARK  167  A    between atoms: _429  and  _432
REMARK  168  A    between atoms: _432  and  _433
REMARK  169  A    between atoms: _436  and  _438
REMARK  170  A    between atoms: _438  and  _439
REMARK  171  A    between atoms: _438  and  _441
REMARK  172  A    between atoms: _441  and  _442
REMARK  173  A    between atoms: _442  and  _443
REMARK  174  A    between atoms: _443  and  _444
REMARK  175  A    between atoms: _453  and  _455
REMARK  176  A    between atoms: _455  and  _456
REMARK  177  A    between atoms: _455  and  _458
REMARK  178  A    between atoms: _458  and  _459
REMARK  179  A    between atoms: _465  and  _467
REMARK  180  A    between atoms: _467  and  _468
REMARK  181  A    between atoms: _467  and  _470
REMARK  182  A    between atoms: _470  and  _471
REMARK  183  A    between atoms: _471  and  _472
REMARK  184  A    between atoms: _472  and  _473
REMARK  185  A    between atoms: _473  and  _474
REMARK  186  A    between atoms: _478  and  _480
REMARK  187  A    between atoms: _480  and  _481
REMARK  188  A    between atoms: _480  and  _483
REMARK  189  A    between atoms: _483  and  _484
REMARK  190  A    between atoms: _484  and  _485
REMARK  191  A    between atoms: _490  and  _492
REMARK  192  A    between atoms: _492  and  _493
REMARK  193  A    between atoms: _492  and  _495
REMARK  194  A    between atoms: _495  and  _496
REMARK  195  A    between atoms: _499  and  _501
REMARK  196  A    between atoms: _501  and  _502
REMARK  197  A    between atoms: _501  and  _504
REMARK  198  A    between atoms: _504  and  _505
REMARK  199  A    between atoms: _508  and  _510
REMARK  200  A    between atoms: _510  and  _511
REMARK  201  A    between atoms: _514  and  _516
REMARK  202  A    between atoms: _516  and  _517
REMARK  203  A    between atoms: _516  and  _519
REMARK  204  A    between atoms: _519  and  _520
REMARK  205  A    between atoms: _523  and  _525
REMARK  206  A    between atoms: _525  and  _526
REMARK  207  A    between atoms: _525  and  _528
REMARK  208  A    between atoms: _531  and  _533
REMARK  209  A    between atoms: _533  and  _534
REMARK  210  A    between atoms: _536  and  _538
REMARK  211  A    between atoms: _538  and  _539
REMARK  212  A    between atoms: _538  and  _541
REMARK  213  A    between atoms: _541  and  _542
REMARK  214  A    between atoms: _544  and  _546
REMARK  215  A    between atoms: _546  and  _547
REMARK  216  A    between atoms: _546  and  _549
REMARK  217  A    between atoms: _549  and  _550
REMARK  218  A    between atoms: _556  and  _558
REMARK  219  A    between atoms: _558  and  _559
REMARK  220  A    between atoms: _558  and  _561
REMARK  221  A    between atoms: _561  and  _562
REMARK  222  A    between atoms: _565  and  _567
REMARK  223  A    between atoms: _567  and  _568
REMARK  224  A    between atoms: _570  and  _572
REMARK  225  A    between atoms: _572  and  _573
REMARK  226  A    between atoms: _575  and  _577
REMARK  227  A    between atoms: _577  and  _578
REMARK  228  A    between atoms: _577  and  _580
REMARK  229  A    between atoms: _580  and  _581
REMARK  230  A    between atoms: _586  and  _587
REMARK  231  A    between atoms: _589  and  _591
REMARK  232  A    between atoms: _591  and  _592
REMARK  233  A    between atoms: _594  and  _596
REMARK  234  A    between atoms: _596  and  _597
REMARK  235  A    between atoms: _596  and  _599
REMARK  236  A    between atoms: _599  and  _600
REMARK  237  A    between atoms: _606  and  _608
REMARK  238  A    between atoms: _608  and  _609
REMARK  239  A    between atoms: _608  and  _611
REMARK  240  A    between atoms: _611  and  _612
REMARK  241  A    between atoms: _615  and  _617
REMARK  242  A    between atoms: _617  and  _618
REMARK  243  A    between atoms: _617  and  _620
REMARK  244  A    between atoms: _620  and  _621
REMARK  245  A    between atoms: _621  and  _622
REMARK  246  A    between atoms: _627  and  _629
REMARK  247  A    between atoms: _629  and  _630
REMARK  248  A    between atoms: _633  and  _635
REMARK  249  A    between atoms: _635  and  _636
REMARK  250  A    between atoms: _638  and  _640
REMARK  251  A    between atoms: _640  and  _641
REMARK  252  A    between atoms: _640  and  _643
REMARK  253  A    between atoms: _643  and  _644
REMARK  254  A    between atoms: _644  and  _645
REMARK  255  A    between atoms: _648  and  _650
REMARK  256  A    between atoms: _650  and  _651
REMARK  257  A    between atoms: _650  and  _653
REMARK  258  A    between atoms: _653  and  _654
REMARK  259  A    between atoms: _657  and  _659
REMARK  260  A    between atoms: _659  and  _660
REMARK  261  A    between atoms: _659  and  _662
REMARK  262  A    between atoms: _662  and  _663
REMARK  263  A    between atoms: _663  and  _664
REMARK  264  A    between atoms: _664  and  _665
REMARK  265  A    between atoms: _674  and  _676
REMARK  266  A    between atoms: _676  and  _677
REMARK  267  A    between atoms: _676  and  _679
REMARK  268  A    between atoms: _679  and  _680
REMARK  269  A    between atoms: _685  and  _686
REMARK  270  A    between atoms: _688  and  _690
REMARK  271  A    between atoms: _690  and  _691
REMARK  272  A    between atoms: _693  and  _695
REMARK  273  A    between atoms: _695  and  _696
REMARK  274  A    between atoms: _695  and  _698
REMARK  275  A    between atoms: _698  and  _699
REMARK  276  A    between atoms: _705  and  _707
REMARK  277  A    between atoms: _707  and  _708
REMARK  278  A    between atoms: _707  and  _710
REMARK  279  A    between atoms: _710  and  _711
REMARK  280  A    between atoms: _714  and  _716
REMARK  281  A    between atoms: _716  and  _717
REMARK  282  A    between atoms: _716  and  _719
REMARK  283  A    between atoms: _719  and  _720
REMARK  284  A    between atoms: _720  and  _721
REMARK  285  A    between atoms: _726  and  _728
REMARK  286  A    between atoms: _728  and  _729
REMARK  287  A    between atoms: _728  and  _731
REMARK  288  A    between atoms: _731  and  _732
REMARK  289  A    between atoms: _732  and  _733
REMARK  290  A    between atoms: _733  and  _734
REMARK  291  A    between atoms: _734  and  _735
REMARK                            x       y       z     vdW  Elec       q    Type
REMARK                         _______ _______ _______ _____ _____    ______ ____
ROOT
ATOM      1  O   HOH     1      37.994 -21.046 194.872  0.00  0.00    +0.000 OA
ENDROOT
TORSDOF 0
REMARK  Name = ../refined-set-2016/4qij/4qij_pocket.pdb
REMARK  291 active torsions:
REMARK  status: ('A' for Active; 'I' for Inactive)
REMARK    1  A    between atoms: _1  and  _3
REMARK    2  A    between atoms: _3  and  _4
REMARK    3  A    between atoms: _3  and  _6
REMARK    4  A    between atoms: _6  and  _7
REMARK    5  A    between atoms: _7  and  _8
REMARK    6  A    between atoms: _8  and  _9
REMARK    7  A    between atoms: _19  and  _20
REMARK    8  A    between atoms: _25  and  _27
REMARK    9  A    between atoms: _27  and  _28
REMARK   10  A    between atoms: _27  and  _30
REMARK   11  A    between atoms: _30  and  _31
REMARK   12  A    between atoms: _31  and  _32
REMARK   13  A    between atoms: _35  and  _37
REMARK   14  A    between atoms: _37  and  _38
REMARK   15  A    between atoms: _37  and  _40
REMARK   16  A    between atoms: _43  and  _45
REMARK   17  A    between atoms: _45  and  _46
REMARK   18  A    between atoms: _45  and  _48
REMARK   19  A    between atoms: _48  and  _49
REMARK   20  A    between atoms: _49  and  _50
REMARK   21  A    between atoms: _50  and  _51
REMARK   22  A    between atoms: _60  and  _62
REMARK   23  A    between atoms: _62  and  _63
REMARK   24  A    between atoms: _62  and  _65
REMARK   25  A    between atoms: _65  and  _66
REMARK   26  A    between atoms: _71  and  _73
REMARK   27  A    between atoms: _73  and  _74
REMARK   28  A    between atoms: _77  and  _79
REMARK   29  A    between atoms: _79  and  _80
REMARK   30  A    between atoms: _79  and  _82
REMARK   31  A    between atoms: _82  and  _83
REMARK   32  A    between atoms: _89  and  _91
REMARK   33  A    between atoms: _91  and  _92
REMARK   34  A    between atoms: _91  and  _94
REMARK   35  A    between atoms: _97  and  _99
REMARK   36  A    between atoms: _99  and  _100
REMARK   37  A    between atoms: _99  and  _102
REMARK   38  A    between atoms: _102  and  _103
REMARK   39  A    between atoms: _105  and  _107
REMARK   40  A    between atoms: _107  and  _108
REMARK   41  A    between atoms: _107  and  _110
REMARK   42  A    between atoms: _110  and  _111
REMARK   43  A    between atoms: _111  and  _112
REMARK   44  A    between atoms: _112  and  _113
REMARK   45  A    between atoms: _113  and  _114
REMARK   46  A    between atoms: _118  and  _120
REMARK   47  A    between atoms: _120  and  _121
REMARK   48  A    between atoms: _120  and  _123
REMARK   49  A    between atoms: _123  and  _124
REMARK   50  A    between atoms: _127  and  _129
REMARK   51  A    between atoms: _129  and  _130
REMARK   52  A    between atoms: _132  and  _134
REMARK   53  A    between atoms: _134  and  _135
REMARK   54  A    between atoms: _134  and  _137
REMARK   55  A    between atoms: _137  and  _138
REMARK   56  A    between atoms: _148  and  _150
REMARK   57  A    between atoms: _150  and  _151
REMARK   58  A    between atoms: _154  and  _156
REMARK   59  A    between atoms: _156  and  _157
REMARK   60  A    between atoms: _156  and  _159
REMARK   61  A    between atoms: _159  and  _160
REMARK   62  A    between atoms: _166  and  _168
REMARK   63  A    between atoms: _168  and  _169
REMARK   64  A    between atoms: _168  and  _171
REMARK   65  A    between atoms: _173  and  _175
REMARK   66  A    between atoms: _175  and  _176
REMARK   67  A    between atoms: _175  and  _178
REMARK   68  A    between atoms: _178  and  _179
REMARK   69  A    between atoms: _181  and  _183
REMARK   70  A    between atoms: _183  and  _184
REMARK   71  A    between atoms: _186  and  _188
REMARK   72  A    between atoms: _188  and  _189
REMARK   73  A    between atoms: _191  and  _193
REMARK   74  A    between atoms: _193  and  _194
REMARK   75  A    between atoms: _193  and  _196
REMARK   76  A    between atoms: _196  and  _197
REMARK   77  A    between atoms: _200  and  _202
REMARK   78  A    between atoms: _202  and  _203
REMARK   79  A    between atoms: _202  and  _205
REMARK   80  A    between atoms: _205  and  _206
REMARK   81  A    between atoms: _206  and  _207
REMARK   82  A    between atoms: _212  and  _214
REMARK   83  A    between atoms: _214  and  _215
REMARK   84  A    between atoms: _214  and  _217
REMARK   85  A    between atoms: _217  and  _218
REMARK   86  A    between atoms: _218  and  _219
REMARK   87  A    between atoms: _219  and  _220
REMARK   88  A    between atoms: _229  and  _231
REMARK   89  A    between atoms: _231  and  _232
REMARK   90  A    between atoms: _231  and  _234
REMARK   91  A    between atoms: _234  and  _235
REMARK   92  A    between atoms: _238  and  _240
REMARK   93  A    between atoms: _240  and  _241
REMARK   94  A    between atoms: _240  and  _243
REMARK   95  A    between atoms: _243  and  _244
REMARK   96  A    between atoms: _244  and  _245
REMARK   97  A    between atoms: _245  and  _246
REMARK   98  A    between atoms: _255  and  _257
REMARK   99  A    between atoms: _257  and  _258
REMARK  100  A    between atoms: _260  and  _262
REMARK  101  A    between atoms: _262  and  _263
REMARK  102  A    between atoms: _262  and  _265
REMARK  103  A    between atoms: _265  and  _266
REMARK  104  A    between atoms: _271  and  _272
REMARK  105  A    between atoms: _274  and  _276
REMARK  106  A    between atoms: _276  and  _277
REMARK  107  A    between atoms: _276  and  _279
REMARK  108  A    between atoms: _279  and  _280
REMARK  109  A    between atoms: _283  and  _285
REMARK  110  A    between atoms: _285  and  _286
REMARK  111  A    between atoms: _285  and  _288
REMARK  112  A    between atoms: _288  and  _289
REMARK  113  A    between atoms: _289  and  _290
REMARK  114  A    between atoms: _290  and  _291
REMARK  115  A    between atoms: _300  and  _302
REMARK  116  A    between atoms: _302  and  _303
REMARK  117  A    between atoms: _302  and  _305
REMARK  118  A    between atoms: _305  and  _306
REMARK  119  A    between atoms: _309  and  _311
REMARK  120  A    between atoms: _311  and  _312
REMARK  121  A    between atoms: _311  and  _314
REMARK  122  A    between atoms: _314  and  _315
REMARK  123  A    between atoms: _320  and  _322
REMARK  124  A    between atoms: _322  and  _323
REMARK  125  A    between atoms: _322  and  _325
REMARK  126  A    between atoms: _325  and  _326
REMARK  127  A    between atoms: _329  and  _331
REMARK  128  A    between atoms: _331  and  _332
REMARK  129  A    between atoms: _331  and  _334
REMARK  130  A    between atoms: _334  and  _335
REMARK  131  A    between atoms: _338  and  _340
REMARK  132  A    between atoms: _340  and  _341
REMARK  133  A    between atoms: _340  and  _343
REMARK  134  A    between atoms: _343  and  _344
REMARK  135  A    between atoms: _344  and  _345
REMARK  136  A    between atoms: _348  and  _350
REMARK  137  A    between atoms: _350  and  _351
REMARK  138  A    between atoms: _350  and  _353
REMARK  139  A    between atoms: _353  and  _354
REMARK  140  A    between atoms: _354  and  _355
REMARK  141  A    between atoms: _360  and  _362
REMARK  142  A    between atoms: _362  and  _363
REMARK  143  A    between atoms: _365  and  _367
REMARK  144  A    between atoms: _367  and  _368
REMARK  145  A    between atoms: _367  and  _370
REMARK  146  A    between atoms: _370  and  _371
REMARK  147  A    between atoms: _381  and  _383
REMARK  148  A    between atoms: _383  and  _384
REMARK  149  A    between atoms: _387  and  _389
REMARK  150  A    between atoms: _389  and  _390
REMARK  151  A    between atoms: _393  and  _395
REMARK  152  A    between atoms: _395  and  _396
REMARK  153  A    between atoms: _398  and  _400
REMARK  154  A    between atoms: _400  and  _401
REMARK  155  A    between atoms: _403  and  _405
REMARK  156  A    between atoms: _405  and  _406
REMARK  157  A    between atoms: _408  and  _410
REMARK  158  A    between atoms: _410  and  _411
REMARK  159  A    between atoms: _410  and  _413
REMARK  160  A    between atoms: _413  and  _414
REMARK  161  A    between atoms: _419  and  _421
REMARK  162  A    between atoms: _421  and  _422
REMARK  163  A    between atoms: _421  and  _424
REMARK  164  A    between atoms: _424  and  _425
REMARK  165  A    between atoms: _427  and  _429
REMARK  166  A    between atoms: _429  and  _430
REMARK  167  A    between atoms: _429  and  _432
REMARK  168  A    between atoms: _432  and  _433
REMARK  169  A    between atoms: _436  and  _438
REMARK  170  A    between atoms: _438  and  _439
REMARK  171  A    between atoms: _438  and  _441
REMARK  172  A    between atoms: _441  and  _442
REMARK  173  A    between atoms: _442  and  _443
REMARK  174  A    between atoms: _443  and  _444
REMARK  175  A    between atoms: _453  and  _455
REMARK  176  A    between atoms: _455  and  _456
REMARK  177  A    between atoms: _455  and  _458
REMARK  178  A    between atoms: _458  and  _459
REMARK  179  A    between atoms: _465  and  _467
REMARK  180  A    between atoms: _467  and  _468
REMARK  181  A    between atoms: _467  and  _470
REMARK  182  A    between atoms: _470  and  _471
REMARK  183  A    between atoms: _471  and  _472
REMARK  184  A    between atoms: _472  and  _473
REMARK  185  A    between atoms: _473  and  _474
REMARK  186  A    between atoms: _478  and  _480
REMARK  187  A    between atoms: _480  and  _481
REMARK  188  A    between atoms: _480  and  _483
REMARK  189  A    between atoms: _483  and  _484
REMARK  190  A    between atoms: _484  and  _485
REMARK  191  A    between atoms: _490  and  _492
REMARK  192  A    between atoms: _492  and  _493
REMARK  193  A    between atoms: _492  and  _495
REMARK  194  A    between atoms: _495  and  _496
REMARK  195  A    between atoms: _499  and  _501
REMARK  196  A    between atoms: _501  and  _502
REMARK  197  A    between atoms: _501  and  _504
REMARK  198  A    between atoms: _504  and  _505
REMARK  199  A    between atoms: _508  and  _510
REMARK  200  A    between atoms: _510  and  _511
REMARK  201  A    between atoms: _514  and  _516
REMARK  202  A    between atoms: _516  and  _517
REMARK  203  A    between atoms: _516  and  _519
REMARK  204  A    between atoms: _519  and  _520
REMARK  205  A    between atoms: _523  and  _525
REMARK  206  A    between atoms: _525  and  _526
REMARK  207  A    between atoms: _525  and  _528
REMARK  208  A    between atoms: _531  and  _533
REMARK  209  A    between atoms: _533  and  _534
REMARK  210  A    between atoms: _536  and  _538
REMARK  211  A    between atoms: _538  and  _539
REMARK  212  A    between atoms: _538  and  _541
REMARK  213  A    between atoms: _541  and  _542
REMARK  214  A    between atoms: _544  and  _546
REMARK  215  A    between atoms: _546  and  _547
REMARK  216  A    between atoms: _546  and  _549
REMARK  217  A    between atoms: _549  and  _550
REMARK  218  A    between atoms: _556  and  _558
REMARK  219  A    between atoms: _558  and  _559
REMARK  220  A    between atoms: _558  and  _561
REMARK  221  A    between atoms: _561  and  _562
REMARK  222  A    between atoms: _565  and  _567
REMARK  223  A    between atoms: _567  and  _568
REMARK  224  A    between atoms: _570  and  _572
REMARK  225  A    between atoms: _572  and  _573
REMARK  226  A    between atoms: _575  and  _577
REMARK  227  A    between atoms: _577  and  _578
REMARK  228  A    between atoms: _577  and  _580
REMARK  229  A    between atoms: _580  and  _581
REMARK  230  A    between atoms: _586  and  _587
REMARK  231  A    between atoms: _589  and  _591
REMARK  232  A    between atoms: _591  and  _592
REMARK  233  A    between atoms: _594  and  _596
REMARK  234  A    between atoms: _596  and  _597
REMARK  235  A    between atoms: _596  and  _599
REMARK  236  A    between atoms: _599  and  _600
REMARK  237  A    between atoms: _606  and  _608
REMARK  238  A    between atoms: _608  and  _609
REMARK  239  A    between atoms: _608  and  _611
REMARK  240  A    between atoms: _611  and  _612
REMARK  241  A    between atoms: _615  and  _617
REMARK  242  A    between atoms: _617  and  _618
REMARK  243  A    between atoms: _617  and  _620
REMARK  244  A    between atoms: _620  and  _621
REMARK  245  A    between atoms: _621  and  _622
REMARK  246  A    between atoms: _627  and  _629
REMARK  247  A    between atoms: _629  and  _630
REMARK  248  A    between atoms: _633  and  _635
REMARK  249  A    between atoms: _635  and  _636
REMARK  250  A    between atoms: _638  and  _640
REMARK  251  A    between atoms: _640  and  _641
REMARK  252  A    between atoms: _640  and  _643
REMARK  253  A    between atoms: _643  and  _644
REMARK  254  A    between atoms: _644  and  _645
REMARK  255  A    between atoms: _648  and  _650
REMARK  256  A    between atoms: _650  and  _651
REMARK  257  A    between atoms: _650  and  _653
REMARK  258  A    between atoms: _653  and  _654
REMARK  259  A    between atoms: _657  and  _659
REMARK  260  A    between atoms: _659  and  _660
REMARK  261  A    between atoms: _659  and  _662
REMARK  262  A    between atoms: _662  and  _663
REMARK  263  A    between atoms: _663  and  _664
REMARK  264  A    between atoms: _664  and  _665
REMARK  265  A    between atoms: _674  and  _676
REMARK  266  A    between atoms: _676  and  _677
REMARK  267  A    between atoms: _676  and  _679
REMARK  268  A    between atoms: _679  and  _680
REMARK  269  A    between atoms: _685  and  _686
REMARK  270  A    between atoms: _688  and  _690
REMARK  271  A    between atoms: _690  and  _691
REMARK  272  A    between atoms: _693  and  _695
REMARK  273  A    between atoms: _695  and  _696
REMARK  274  A    between atoms: _695  and  _698
REMARK  275  A    between atoms: _698  and  _699
REMARK  276  A    between atoms: _705  and  _707
REMARK  277  A    between atoms: _707  and  _708
REMARK  278  A    between atoms: _707  and  _710
REMARK  279  A    between atoms: _710  and  _711
REMARK  280  A    between atoms: _714  and  _716
REMARK  281  A    between atoms: _716  and  _717
REMARK  282  A    between atoms: _716  and  _719
REMARK  283  A    between atoms: _719  and  _720
REMARK  284  A    between atoms: _720  and  _721
REMARK  285  A    between atoms: _726  and  _728
REMARK  286  A    between atoms: _728  and  _729
REMARK  287  A    between atoms: _728  and  _731
REMARK  288  A    between atoms: _731  and  _732
REMARK  289  A    between atoms: _732  and  _733
REMARK  290  A    between atoms: _733  and  _734
REMARK  291  A    between atoms: _734  and  _735
REMARK                            x       y       z     vdW  Elec       q    Type
REMARK                         _______ _______ _______ _____ _____    ______ ____
ROOT
ATOM      1  O   HOH     1      21.848 -10.642 197.627  0.00  0.00    +0.000 OA
ENDROOT
TORSDOF 0
REMARK  Name = ../refined-set-2016/4qij/4qij_pocket.pdb
REMARK  291 active torsions:
REMARK  status: ('A' for Active; 'I' for Inactive)
REMARK    1  A    between atoms: _1  and  _3
REMARK    2  A    between atoms: _3  and  _4
REMARK    3  A    between atoms: _3  and  _6
REMARK    4  A    between atoms: _6  and  _7
REMARK    5  A    between atoms: _7  and  _8
REMARK    6  A    between atoms: _8  and  _9
REMARK    7  A    between atoms: _19  and  _20
REMARK    8  A    between atoms: _25  and  _27
REMARK    9  A    between atoms: _27  and  _28
REMARK   10  A    between atoms: _27  and  _30
REMARK   11  A    between atoms: _30  and  _31
REMARK   12  A    between atoms: _31  and  _32
REMARK   13  A    between atoms: _35  and  _37
REMARK   14  A    between atoms: _37  and  _38
REMARK   15  A    between atoms: _37  and  _40
REMARK   16  A    between atoms: _43  and  _45
REMARK   17  A    between atoms: _45  and  _46
REMARK   18  A    between atoms: _45  and  _48
REMARK   19  A    between atoms: _48  and  _49
REMARK   20  A    between atoms: _49  and  _50
REMARK   21  A    between atoms: _50  and  _51
REMARK   22  A    between atoms: _60  and  _62
REMARK   23  A    between atoms: _62  and  _63
REMARK   24  A    between atoms: _62  and  _65
REMARK   25  A    between atoms: _65  and  _66
REMARK   26  A    between atoms: _71  and  _73
REMARK   27  A    between atoms: _73  and  _74
REMARK   28  A    between atoms: _77  and  _79
REMARK   29  A    between atoms: _79  and  _80
REMARK   30  A    between atoms: _79  and  _82
REMARK   31  A    between atoms: _82  and  _83
REMARK   32  A    between atoms: _89  and  _91
REMARK   33  A    between atoms: _91  and  _92
REMARK   34  A    between atoms: _91  and  _94
REMARK   35  A    between atoms: _97  and  _99
REMARK   36  A    between atoms: _99  and  _100
REMARK   37  A    between atoms: _99  and  _102
REMARK   38  A    between atoms: _102  and  _103
REMARK   39  A    between atoms: _105  and  _107
REMARK   40  A    between atoms: _107  and  _108
REMARK   41  A    between atoms: _107  and  _110
REMARK   42  A    between atoms: _110  and  _111
REMARK   43  A    between atoms: _111  and  _112
REMARK   44  A    between atoms: _112  and  _113
REMARK   45  A    between atoms: _113  and  _114
REMARK   46  A    between atoms: _118  and  _120
REMARK   47  A    between atoms: _120  and  _121
REMARK   48  A    between atoms: _120  and  _123
REMARK   49  A    between atoms: _123  and  _124
REMARK   50  A    between atoms: _127  and  _129
REMARK   51  A    between atoms: _129  and  _130
REMARK   52  A    between atoms: _132  and  _134
REMARK   53  A    between atoms: _134  and  _135
REMARK   54  A    between atoms: _134  and  _137
REMARK   55  A    between atoms: _137  and  _138
REMARK   56  A    between atoms: _148  and  _150
REMARK   57  A    between atoms: _150  and  _151
REMARK   58  A    between atoms: _154  and  _156
REMARK   59  A    between atoms: _156  and  _157
REMARK   60  A    between atoms: _156  and  _159
REMARK   61  A    between atoms: _159  and  _160
REMARK   62  A    between atoms: _166  and  _168
REMARK   63  A    between atoms: _168  and  _169
REMARK   64  A    between atoms: _168  and  _171
REMARK   65  A    between atoms: _173  and  _175
REMARK   66  A    between atoms: _175  and  _176
REMARK   67  A    between atoms: _175  and  _178
REMARK   68  A    between atoms: _178  and  _179
REMARK   69  A    between atoms: _181  and  _183
REMARK   70  A    between atoms: _183  and  _184
REMARK   71  A    between atoms: _186  and  _188
REMARK   72  A    between atoms: _188  and  _189
REMARK   73  A    between atoms: _191  and  _193
REMARK   74  A    between atoms: _193  and  _194
REMARK   75  A    between atoms: _193  and  _196
REMARK   76  A    between atoms: _196  and  _197
REMARK   77  A    between atoms: _200  and  _202
REMARK   78  A    between atoms: _202  and  _203
REMARK   79  A    between atoms: _202  and  _205
REMARK   80  A    between atoms: _205  and  _206
REMARK   81  A    between atoms: _206  and  _207
REMARK   82  A    between atoms: _212  and  _214
REMARK   83  A    between atoms: _214  and  _215
REMARK   84  A    between atoms: _214  and  _217
REMARK   85  A    between atoms: _217  and  _218
REMARK   86  A    between atoms: _218  and  _219
REMARK   87  A    between atoms: _219  and  _220
REMARK   88  A    between atoms: _229  and  _231
REMARK   89  A    between atoms: _231  and  _232
REMARK   90  A    between atoms: _231  and  _234
REMARK   91  A    between atoms: _234  and  _235
REMARK   92  A    between atoms: _238  and  _240
REMARK   93  A    between atoms: _240  and  _241
REMARK   94  A    between atoms: _240  and  _243
REMARK   95  A    between atoms: _243  and  _244
REMARK   96  A    between atoms: _244  and  _245
REMARK   97  A    between atoms: _245  and  _246
REMARK   98  A    between atoms: _255  and  _257
REMARK   99  A    between atoms: _257  and  _258
REMARK  100  A    between atoms: _260  and  _262
REMARK  101  A    between atoms: _262  and  _263
REMARK  102  A    between atoms: _262  and  _265
REMARK  103  A    between atoms: _265  and  _266
REMARK  104  A    between atoms: _271  and  _272
REMARK  105  A    between atoms: _274  and  _276
REMARK  106  A    between atoms: _276  and  _277
REMARK  107  A    between atoms: _276  and  _279
REMARK  108  A    between atoms: _279  and  _280
REMARK  109  A    between atoms: _283  and  _285
REMARK  110  A    between atoms: _285  and  _286
REMARK  111  A    between atoms: _285  and  _288
REMARK  112  A    between atoms: _288  and  _289
REMARK  113  A    between atoms: _289  and  _290
REMARK  114  A    between atoms: _290  and  _291
REMARK  115  A    between atoms: _300  and  _302
REMARK  116  A    between atoms: _302  and  _303
REMARK  117  A    between atoms: _302  and  _305
REMARK  118  A    between atoms: _305  and  _306
REMARK  119  A    between atoms: _309  and  _311
REMARK  120  A    between atoms: _311  and  _312
REMARK  121  A    between atoms: _311  and  _314
REMARK  122  A    between atoms: _314  and  _315
REMARK  123  A    between atoms: _320  and  _322
REMARK  124  A    between atoms: _322  and  _323
REMARK  125  A    between atoms: _322  and  _325
REMARK  126  A    between atoms: _325  and  _326
REMARK  127  A    between atoms: _329  and  _331
REMARK  128  A    between atoms: _331  and  _332
REMARK  129  A    between atoms: _331  and  _334
REMARK  130  A    between atoms: _334  and  _335
REMARK  131  A    between atoms: _338  and  _340
REMARK  132  A    between atoms: _340  and  _341
REMARK  133  A    between atoms: _340  and  _343
REMARK  134  A    between atoms: _343  and  _344
REMARK  135  A    between atoms: _344  and  _345
REMARK  136  A    between atoms: _348  and  _350
REMARK  137  A    between atoms: _350  and  _351
REMARK  138  A    between atoms: _350  and  _353
REMARK  139  A    between atoms: _353  and  _354
REMARK  140  A    between atoms: _354  and  _355
REMARK  141  A    between atoms: _360  and  _362
REMARK  142  A    between atoms: _362  and  _363
REMARK  143  A    between atoms: _365  and  _367
REMARK  144  A    between atoms: _367  and  _368
REMARK  145  A    between atoms: _367  and  _370
REMARK  146  A    between atoms: _370  and  _371
REMARK  147  A    between atoms: _381  and  _383
REMARK  148  A    between atoms: _383  and  _384
REMARK  149  A    between atoms: _387  and  _389
REMARK  150  A    between atoms: _389  and  _390
REMARK  151  A    between atoms: _393  and  _395
REMARK  152  A    between atoms: _395  and  _396
REMARK  153  A    between atoms: _398  and  _400
REMARK  154  A    between atoms: _400  and  _401
REMARK  155  A    between atoms: _403  and  _405
REMARK  156  A    between atoms: _405  and  _406
REMARK  157  A    between atoms: _408  and  _410
REMARK  158  A    between atoms: _410  and  _411
REMARK  159  A    between atoms: _410  and  _413
REMARK  160  A    between atoms: _413  and  _414
REMARK  161  A    between atoms: _419  and  _421
REMARK  162  A    between atoms: _421  and  _422
REMARK  163  A    between atoms: _421  and  _424
REMARK  164  A    between atoms: _424  and  _425
REMARK  165  A    between atoms: _427  and  _429
REMARK  166  A    between atoms: _429  and  _430
REMARK  167  A    between atoms: _429  and  _432
REMARK  168  A    between atoms: _432  and  _433
REMARK  169  A    between atoms: _436  and  _438
REMARK  170  A    between atoms: _438  and  _439
REMARK  171  A    between atoms: _438  and  _441
REMARK  172  A    between atoms: _441  and  _442
REMARK  173  A    between atoms: _442  and  _443
REMARK  174  A    between atoms: _443  and  _444
REMARK  175  A    between atoms: _453  and  _455
REMARK  176  A    between atoms: _455  and  _456
REMARK  177  A    between atoms: _455  and  _458
REMARK  178  A    between atoms: _458  and  _459
REMARK  179  A    between atoms: _465  and  _467
REMARK  180  A    between atoms: _467  and  _468
REMARK  181  A    between atoms: _467  and  _470
REMARK  182  A    between atoms: _470  and  _471
REMARK  183  A    between atoms: _471  and  _472
REMARK  184  A    between atoms: _472  and  _473
REMARK  185  A    between atoms: _473  and  _474
REMARK  186  A    between atoms: _478  and  _480
REMARK  187  A    between atoms: _480  and  _481
REMARK  188  A    between atoms: _480  and  _483
REMARK  189  A    between atoms: _483  and  _484
REMARK  190  A    between atoms: _484  and  _485
REMARK  191  A    between atoms: _490  and  _492
REMARK  192  A    between atoms: _492  and  _493
REMARK  193  A    between atoms: _492  and  _495
REMARK  194  A    between atoms: _495  and  _496
REMARK  195  A    between atoms: _499  and  _501
REMARK  196  A    between atoms: _501  and  _502
REMARK  197  A    between atoms: _501  and  _504
REMARK  198  A    between atoms: _504  and  _505
REMARK  199  A    between atoms: _508  and  _510
REMARK  200  A    between atoms: _510  and  _511
REMARK  201  A    between atoms: _514  and  _516
REMARK  202  A    between atoms: _516  and  _517
REMARK  203  A    between atoms: _516  and  _519
REMARK  204  A    between atoms: _519  and  _520
REMARK  205  A    between atoms: _523  and  _525
REMARK  206  A    between atoms: _525  and  _526
REMARK  207  A    between atoms: _525  and  _528
REMARK  208  A    between atoms: _531  and  _533
REMARK  209  A    between atoms: _533  and  _534
REMARK  210  A    between atoms: _536  and  _538
REMARK  211  A    between atoms: _538  and  _539
REMARK  212  A    between atoms: _538  and  _541
REMARK  213  A    between atoms: _541  and  _542
REMARK  214  A    between atoms: _544  and  _546
REMARK  215  A    between atoms: _546  and  _547
REMARK  216  A    between atoms: _546  and  _549
REMARK  217  A    between atoms: _549  and  _550
REMARK  218  A    between atoms: _556  and  _558
REMARK  219  A    between atoms: _558  and  _559
REMARK  220  A    between atoms: _558  and  _561
REMARK  221  A    between atoms: _561  and  _562
REMARK  222  A    between atoms: _565  and  _567
REMARK  223  A    between atoms: _567  and  _568
REMARK  224  A    between atoms: _570  and  _572
REMARK  225  A    between atoms: _572  and  _573
REMARK  226  A    between atoms: _575  and  _577
REMARK  227  A    between atoms: _577  and  _578
REMARK  228  A    between atoms: _577  and  _580
REMARK  229  A    between atoms: _580  and  _581
REMARK  230  A    between atoms: _586  and  _587
REMARK  231  A    between atoms: _589  and  _591
REMARK  232  A    between atoms: _591  and  _592
REMARK  233  A    between atoms: _594  and  _596
REMARK  234  A    between atoms: _596  and  _597
REMARK  235  A    between atoms: _596  and  _599
REMARK  236  A    between atoms: _599  and  _600
REMARK  237  A    between atoms: _606  and  _608
REMARK  238  A    between atoms: _608  and  _609
REMARK  239  A    between atoms: _608  and  _611
REMARK  240  A    between atoms: _611  and  _612
REMARK  241  A    between atoms: _615  and  _617
REMARK  242  A    between atoms: _617  and  _618
REMARK  243  A    between atoms: _617  and  _620
REMARK  244  A    between atoms: _620  and  _621
REMARK  245  A    between atoms: _621  and  _622
REMARK  246  A    between atoms: _627  and  _629
REMARK  247  A    between atoms: _629  and  _630
REMARK  248  A    between atoms: _633  and  _635
REMARK  249  A    between atoms: _635  and  _636
REMARK  250  A    between atoms: _638  and  _640
REMARK  251  A    between atoms: _640  and  _641
REMARK  252  A    between atoms: _640  and  _643
REMARK  253  A    between atoms: _643  and  _644
REMARK  254  A    between atoms: _644  and  _645
REMARK  255  A    between atoms: _648  and  _650
REMARK  256  A    between atoms: _650  and  _651
REMARK  257  A    between atoms: _650  and  _653
REMARK  258  A    between atoms: _653  and  _654
REMARK  259  A    between atoms: _657  and  _659
REMARK  260  A    between atoms: _659  and  _660
REMARK  261  A    between atoms: _659  and  _662
REMARK  262  A    between atoms: _662  and  _663
REMARK  263  A    between atoms: _663  and  _664
REMARK  264  A    between atoms: _664  and  _665
REMARK  265  A    between atoms: _674  and  _676
REMARK  266  A    between atoms: _676  and  _677
REMARK  267  A    between atoms: _676  and  _679
REMARK  268  A    between atoms: _679  and  _680
REMARK  269  A    between atoms: _685  and  _686
REMARK  270  A    between atoms: _688  and  _690
REMARK  271  A    between atoms: _690  and  _691
REMARK  272  A    between atoms: _693  and  _695
REMARK  273  A    between atoms: _695  and  _696
REMARK  274  A    between atoms: _695  and  _698
REMARK  275  A    between atoms: _698  and  _699
REMARK  276  A    between atoms: _705  and  _707
REMARK  277  A    between atoms: _707  and  _708
REMARK  278  A    between atoms: _707  and  _710
REMARK  279  A    between atoms: _710  and  _711
REMARK  280  A    between atoms: _714  and  _716
REMARK  281  A    between atoms: _716  and  _717
REMARK  282  A    between atoms: _716  and  _719
REMARK  283  A    between atoms: _719  and  _720
REMARK  284  A    between atoms: _720  and  _721
REMARK  285  A    between atoms: _726  and  _728
REMARK  286  A    between atoms: _728  and  _729
REMARK  287  A    between atoms: _728  and  _731
REMARK  288  A    between atoms: _731  and  _732
REMARK  289  A    between atoms: _732  and  _733
REMARK  290  A    between atoms: _733  and  _734
REMARK  291  A    between atoms: _734  and  _735
REMARK                            x       y       z     vdW  Elec       q    Type
REMARK                         _______ _______ _______ _____ _____    ______ ____
ROOT
ATOM      1  O   HOH     1      21.060 -12.324 199.064  0.00  0.00    +0.000 OA
ENDROOT
TORSDOF 0
REMARK  Name = ../refined-set-2016/4qij/4qij_pocket.pdb
REMARK  291 active torsions:
REMARK  status: ('A' for Active; 'I' for Inactive)
REMARK    1  A    between atoms: _1  and  _3
REMARK    2  A    between atoms: _3  and  _4
REMARK    3  A    between atoms: _3  and  _6
REMARK    4  A    between atoms: _6  and  _7
REMARK    5  A    between atoms: _7  and  _8
REMARK    6  A    between atoms: _8  and  _9
REMARK    7  A    between atoms: _19  and  _20
REMARK    8  A    between atoms: _25  and  _27
REMARK    9  A    between atoms: _27  and  _28
REMARK   10  A    between atoms: _27  and  _30
REMARK   11  A    between atoms: _30  and  _31
REMARK   12  A    between atoms: _31  and  _32
REMARK   13  A    between atoms: _35  and  _37
REMARK   14  A    between atoms: _37  and  _38
REMARK   15  A    between atoms: _37  and  _40
REMARK   16  A    between atoms: _43  and  _45
REMARK   17  A    between atoms: _45  and  _46
REMARK   18  A    between atoms: _45  and  _48
REMARK   19  A    between atoms: _48  and  _49
REMARK   20  A    between atoms: _49  and  _50
REMARK   21  A    between atoms: _50  and  _51
REMARK   22  A    between atoms: _60  and  _62
REMARK   23  A    between atoms: _62  and  _63
REMARK   24  A    between atoms: _62  and  _65
REMARK   25  A    between atoms: _65  and  _66
REMARK   26  A    between atoms: _71  and  _73
REMARK   27  A    between atoms: _73  and  _74
REMARK   28  A    between atoms: _77  and  _79
REMARK   29  A    between atoms: _79  and  _80
REMARK   30  A    between atoms: _79  and  _82
REMARK   31  A    between atoms: _82  and  _83
REMARK   32  A    between atoms: _89  and  _91
REMARK   33  A    between atoms: _91  and  _92
REMARK   34  A    between atoms: _91  and  _94
REMARK   35  A    between atoms: _97  and  _99
REMARK   36  A    between atoms: _99  and  _100
REMARK   37  A    between atoms: _99  and  _102
REMARK   38  A    between atoms: _102  and  _103
REMARK   39  A    between atoms: _105  and  _107
REMARK   40  A    between atoms: _107  and  _108
REMARK   41  A    between atoms: _107  and  _110
REMARK   42  A    between atoms: _110  and  _111
REMARK   43  A    between atoms: _111  and  _112
REMARK   44  A    between atoms: _112  and  _113
REMARK   45  A    between atoms: _113  and  _114
REMARK   46  A    between atoms: _118  and  _120
REMARK   47  A    between atoms: _120  and  _121
REMARK   48  A    between atoms: _120  and  _123
REMARK   49  A    between atoms: _123  and  _124
REMARK   50  A    between atoms: _127  and  _129
REMARK   51  A    between atoms: _129  and  _130
REMARK   52  A    between atoms: _132  and  _134
REMARK   53  A    between atoms: _134  and  _135
REMARK   54  A    between atoms: _134  and  _137
REMARK   55  A    between atoms: _137  and  _138
REMARK   56  A    between atoms: _148  and  _150
REMARK   57  A    between atoms: _150  and  _151
REMARK   58  A    between atoms: _154  and  _156
REMARK   59  A    between atoms: _156  and  _157
REMARK   60  A    between atoms: _156  and  _159
REMARK   61  A    between atoms: _159  and  _160
REMARK   62  A    between atoms: _166  and  _168
REMARK   63  A    between atoms: _168  and  _169
REMARK   64  A    between atoms: _168  and  _171
REMARK   65  A    between atoms: _173  and  _175
REMARK   66  A    between atoms: _175  and  _176
REMARK   67  A    between atoms: _175  and  _178
REMARK   68  A    between atoms: _178  and  _179
REMARK   69  A    between atoms: _181  and  _183
REMARK   70  A    between atoms: _183  and  _184
REMARK   71  A    between atoms: _186  and  _188
REMARK   72  A    between atoms: _188  and  _189
REMARK   73  A    between atoms: _191  and  _193
REMARK   74  A    between atoms: _193  and  _194
REMARK   75  A    between atoms: _193  and  _196
REMARK   76  A    between atoms: _196  and  _197
REMARK   77  A    between atoms: _200  and  _202
REMARK   78  A    between atoms: _202  and  _203
REMARK   79  A    between atoms: _202  and  _205
REMARK   80  A    between atoms: _205  and  _206
REMARK   81  A    between atoms: _206  and  _207
REMARK   82  A    between atoms: _212  and  _214
REMARK   83  A    between atoms: _214  and  _215
REMARK   84  A    between atoms: _214  and  _217
REMARK   85  A    between atoms: _217  and  _218
REMARK   86  A    between atoms: _218  and  _219
REMARK   87  A    between atoms: _219  and  _220
REMARK   88  A    between atoms: _229  and  _231
REMARK   89  A    between atoms: _231  and  _232
REMARK   90  A    between atoms: _231  and  _234
REMARK   91  A    between atoms: _234  and  _235
REMARK   92  A    between atoms: _238  and  _240
REMARK   93  A    between atoms: _240  and  _241
REMARK   94  A    between atoms: _240  and  _243
REMARK   95  A    between atoms: _243  and  _244
REMARK   96  A    between atoms: _244  and  _245
REMARK   97  A    between atoms: _245  and  _246
REMARK   98  A    between atoms: _255  and  _257
REMARK   99  A    between atoms: _257  and  _258
REMARK  100  A    between atoms: _260  and  _262
REMARK  101  A    between atoms: _262  and  _263
REMARK  102  A    between atoms: _262  and  _265
REMARK  103  A    between atoms: _265  and  _266
REMARK  104  A    between atoms: _271  and  _272
REMARK  105  A    between atoms: _274  and  _276
REMARK  106  A    between atoms: _276  and  _277
REMARK  107  A    between atoms: _276  and  _279
REMARK  108  A    between atoms: _279  and  _280
REMARK  109  A    between atoms: _283  and  _285
REMARK  110  A    between atoms: _285  and  _286
REMARK  111  A    between atoms: _285  and  _288
REMARK  112  A    between atoms: _288  and  _289
REMARK  113  A    between atoms: _289  and  _290
REMARK  114  A    between atoms: _290  and  _291
REMARK  115  A    between atoms: _300  and  _302
REMARK  116  A    between atoms: _302  and  _303
REMARK  117  A    between atoms: _302  and  _305
REMARK  118  A    between atoms: _305  and  _306
REMARK  119  A    between atoms: _309  and  _311
REMARK  120  A    between atoms: _311  and  _312
REMARK  121  A    between atoms: _311  and  _314
REMARK  122  A    between atoms: _314  and  _315
REMARK  123  A    between atoms: _320  and  _322
REMARK  124  A    between atoms: _322  and  _323
REMARK  125  A    between atoms: _322  and  _325
REMARK  126  A    between atoms: _325  and  _326
REMARK  127  A    between atoms: _329  and  _331
REMARK  128  A    between atoms: _331  and  _332
REMARK  129  A    between atoms: _331  and  _334
REMARK  130  A    between atoms: _334  and  _335
REMARK  131  A    between atoms: _338  and  _340
REMARK  132  A    between atoms: _340  and  _341
REMARK  133  A    between atoms: _340  and  _343
REMARK  134  A    between atoms: _343  and  _344
REMARK  135  A    between atoms: _344  and  _345
REMARK  136  A    between atoms: _348  and  _350
REMARK  137  A    between atoms: _350  and  _351
REMARK  138  A    between atoms: _350  and  _353
REMARK  139  A    between atoms: _353  and  _354
REMARK  140  A    between atoms: _354  and  _355
REMARK  141  A    between atoms: _360  and  _362
REMARK  142  A    between atoms: _362  and  _363
REMARK  143  A    between atoms: _365  and  _367
REMARK  144  A    between atoms: _367  and  _368
REMARK  145  A    between atoms: _367  and  _370
REMARK  146  A    between atoms: _370  and  _371
REMARK  147  A    between atoms: _381  and  _383
REMARK  148  A    between atoms: _383  and  _384
REMARK  149  A    between atoms: _387  and  _389
REMARK  150  A    between atoms: _389  and  _390
REMARK  151  A    between atoms: _393  and  _395
REMARK  152  A    between atoms: _395  and  _396
REMARK  153  A    between atoms: _398  and  _400
REMARK  154  A    between atoms: _400  and  _401
REMARK  155  A    between atoms: _403  and  _405
REMARK  156  A    between atoms: _405  and  _406
REMARK  157  A    between atoms: _408  and  _410
REMARK  158  A    between atoms: _410  and  _411
REMARK  159  A    between atoms: _410  and  _413
REMARK  160  A    between atoms: _413  and  _414
REMARK  161  A    between atoms: _419  and  _421
REMARK  162  A    between atoms: _421  and  _422
REMARK  163  A    between atoms: _421  and  _424
REMARK  164  A    between atoms: _424  and  _425
REMARK  165  A    between atoms: _427  and  _429
REMARK  166  A    between atoms: _429  and  _430
REMARK  167  A    between atoms: _429  and  _432
REMARK  168  A    between atoms: _432  and  _433
REMARK  169  A    between atoms: _436  and  _438
REMARK  170  A    between atoms: _438  and  _439
REMARK  171  A    between atoms: _438  and  _441
REMARK  172  A    between atoms: _441  and  _442
REMARK  173  A    between atoms: _442  and  _443
REMARK  174  A    between atoms: _443  and  _444
REMARK  175  A    between atoms: _453  and  _455
REMARK  176  A    between atoms: _455  and  _456
REMARK  177  A    between atoms: _455  and  _458
REMARK  178  A    between atoms: _458  and  _459
REMARK  179  A    between atoms: _465  and  _467
REMARK  180  A    between atoms: _467  and  _468
REMARK  181  A    between atoms: _467  and  _470
REMARK  182  A    between atoms: _470  and  _471
REMARK  183  A    between atoms: _471  and  _472
REMARK  184  A    between atoms: _472  and  _473
REMARK  185  A    between atoms: _473  and  _474
REMARK  186  A    between atoms: _478  and  _480
REMARK  187  A    between atoms: _480  and  _481
REMARK  188  A    between atoms: _480  and  _483
REMARK  189  A    between atoms: _483  and  _484
REMARK  190  A    between atoms: _484  and  _485
REMARK  191  A    between atoms: _490  and  _492
REMARK  192  A    between atoms: _492  and  _493
REMARK  193  A    between atoms: _492  and  _495
REMARK  194  A    between atoms: _495  and  _496
REMARK  195  A    between atoms: _499  and  _501
REMARK  196  A    between atoms: _501  and  _502
REMARK  197  A    between atoms: _501  and  _504
REMARK  198  A    between atoms: _504  and  _505
REMARK  199  A    between atoms: _508  and  _510
REMARK  200  A    between atoms: _510  and  _511
REMARK  201  A    between atoms: _514  and  _516
REMARK  202  A    between atoms: _516  and  _517
REMARK  203  A    between atoms: _516  and  _519
REMARK  204  A    between atoms: _519  and  _520
REMARK  205  A    between atoms: _523  and  _525
REMARK  206  A    between atoms: _525  and  _526
REMARK  207  A    between atoms: _525  and  _528
REMARK  208  A    between atoms: _531  and  _533
REMARK  209  A    between atoms: _533  and  _534
REMARK  210  A    between atoms: _536  and  _538
REMARK  211  A    between atoms: _538  and  _539
REMARK  212  A    between atoms: _538  and  _541
REMARK  213  A    between atoms: _541  and  _542
REMARK  214  A    between atoms: _544  and  _546
REMARK  215  A    between atoms: _546  and  _547
REMARK  216  A    between atoms: _546  and  _549
REMARK  217  A    between atoms: _549  and  _550
REMARK  218  A    between atoms: _556  and  _558
REMARK  219  A    between atoms: _558  and  _559
REMARK  220  A    between atoms: _558  and  _561
REMARK  221  A    between atoms: _561  and  _562
REMARK  222  A    between atoms: _565  and  _567
REMARK  223  A    between atoms: _567  and  _568
REMARK  224  A    between atoms: _570  and  _572
REMARK  225  A    between atoms: _572  and  _573
REMARK  226  A    between atoms: _575  and  _577
REMARK  227  A    between atoms: _577  and  _578
REMARK  228  A    between atoms: _577  and  _580
REMARK  229  A    between atoms: _580  and  _581
REMARK  230  A    between atoms: _586  and  _587
REMARK  231  A    between atoms: _589  and  _591
REMARK  232  A    between atoms: _591  and  _592
REMARK  233  A    between atoms: _594  and  _596
REMARK  234  A    between atoms: _596  and  _597
REMARK  235  A    between atoms: _596  and  _599
REMARK  236  A    between atoms: _599  and  _600
REMARK  237  A    between atoms: _606  and  _608
REMARK  238  A    between atoms: _608  and  _609
REMARK  239  A    between atoms: _608  and  _611
REMARK  240  A    between atoms: _611  and  _612
REMARK  241  A    between atoms: _615  and  _617
REMARK  242  A    between atoms: _617  and  _618
REMARK  243  A    between atoms: _617  and  _620
REMARK  244  A    between atoms: _620  and  _621
REMARK  245  A    between atoms: _621  and  _622
REMARK  246  A    between atoms: _627  and  _629
REMARK  247  A    between atoms: _629  and  _630
REMARK  248  A    between atoms: _633  and  _635
REMARK  249  A    between atoms: _635  and  _636
REMARK  250  A    between atoms: _638  and  _640
REMARK  251  A    between atoms: _640  and  _641
REMARK  252  A    between atoms: _640  and  _643
REMARK  253  A    between atoms: _643  and  _644
REMARK  254  A    between atoms: _644  and  _645
REMARK  255  A    between atoms: _648  and  _650
REMARK  256  A    between atoms: _650  and  _651
REMARK  257  A    between atoms: _650  and  _653
REMARK  258  A    between atoms: _653  and  _654
REMARK  259  A    between atoms: _657  and  _659
REMARK  260  A    between atoms: _659  and  _660
REMARK  261  A    between atoms: _659  and  _662
REMARK  262  A    between atoms: _662  and  _663
REMARK  263  A    between atoms: _663  and  _664
REMARK  264  A    between atoms: _664  and  _665
REMARK  265  A    between atoms: _674  and  _676
REMARK  266  A    between atoms: _676  and  _677
REMARK  267  A    between atoms: _676  and  _679
REMARK  268  A    between atoms: _679  and  _680
REMARK  269  A    between atoms: _685  and  _686
REMARK  270  A    between atoms: _688  and  _690
REMARK  271  A    between atoms: _690  and  _691
REMARK  272  A    between atoms: _693  and  _695
REMARK  273  A    between atoms: _695  and  _696
REMARK  274  A    between atoms: _695  and  _698
REMARK  275  A    between atoms: _698  and  _699
REMARK  276  A    between atoms: _705  and  _707
REMARK  277  A    between atoms: _707  and  _708
REMARK  278  A    between atoms: _707  and  _710
REMARK  279  A    between atoms: _710  and  _711
REMARK  280  A    between atoms: _714  and  _716
REMARK  281  A    between atoms: _716  and  _717
REMARK  282  A    between atoms: _716  and  _719
REMARK  283  A    between atoms: _719  and  _720
REMARK  284  A    between atoms: _720  and  _721
REMARK  285  A    between atoms: _726  and  _728
REMARK  286  A    between atoms: _728  and  _729
REMARK  287  A    between atoms: _728  and  _731
REMARK  288  A    between atoms: _731  and  _732
REMARK  289  A    between atoms: _732  and  _733
REMARK  290  A    between atoms: _733  and  _734
REMARK  291  A    between atoms: _734  and  _735
REMARK                            x       y       z     vdW  Elec       q    Type
REMARK                         _______ _______ _______ _____ _____    ______ ____
ROOT
ATOM      1  O   HOH     1      26.579 -10.383 176.507  0.00  0.00    +0.000 OA
ENDROOT
TORSDOF 0
REMARK  Name = ../refined-set-2016/4qij/4qij_pocket.pdb
REMARK  291 active torsions:
REMARK  status: ('A' for Active; 'I' for Inactive)
REMARK    1  A    between atoms: _1  and  _3
REMARK    2  A    between atoms: _3  and  _4
REMARK    3  A    between atoms: _3  and  _6
REMARK    4  A    between atoms: _6  and  _7
REMARK    5  A    between atoms: _7  and  _8
REMARK    6  A    between atoms: _8  and  _9
REMARK    7  A    between atoms: _19  and  _20
REMARK    8  A    between atoms: _25  and  _27
REMARK    9  A    between atoms: _27  and  _28
REMARK   10  A    between atoms: _27  and  _30
REMARK   11  A    between atoms: _30  and  _31
REMARK   12  A    between atoms: _31  and  _32
REMARK   13  A    between atoms: _35  and  _37
REMARK   14  A    between atoms: _37  and  _38
REMARK   15  A    between atoms: _37  and  _40
REMARK   16  A    between atoms: _43  and  _45
REMARK   17  A    between atoms: _45  and  _46
REMARK   18  A    between atoms: _45  and  _48
REMARK   19  A    between atoms: _48  and  _49
REMARK   20  A    between atoms: _49  and  _50
REMARK   21  A    between atoms: _50  and  _51
REMARK   22  A    between atoms: _60  and  _62
REMARK   23  A    between atoms: _62  and  _63
REMARK   24  A    between atoms: _62  and  _65
REMARK   25  A    between atoms: _65  and  _66
REMARK   26  A    between atoms: _71  and  _73
REMARK   27  A    between atoms: _73  and  _74
REMARK   28  A    between atoms: _77  and  _79
REMARK   29  A    between atoms: _79  and  _80
REMARK   30  A    between atoms: _79  and  _82
REMARK   31  A    between atoms: _82  and  _83
REMARK   32  A    between atoms: _89  and  _91
REMARK   33  A    between atoms: _91  and  _92
REMARK   34  A    between atoms: _91  and  _94
REMARK   35  A    between atoms: _97  and  _99
REMARK   36  A    between atoms: _99  and  _100
REMARK   37  A    between atoms: _99  and  _102
REMARK   38  A    between atoms: _102  and  _103
REMARK   39  A    between atoms: _105  and  _107
REMARK   40  A    between atoms: _107  and  _108
REMARK   41  A    between atoms: _107  and  _110
REMARK   42  A    between atoms: _110  and  _111
REMARK   43  A    between atoms: _111  and  _112
REMARK   44  A    between atoms: _112  and  _113
REMARK   45  A    between atoms: _113  and  _114
REMARK   46  A    between atoms: _118  and  _120
REMARK   47  A    between atoms: _120  and  _121
REMARK   48  A    between atoms: _120  and  _123
REMARK   49  A    between atoms: _123  and  _124
REMARK   50  A    between atoms: _127  and  _129
REMARK   51  A    between atoms: _129  and  _130
REMARK   52  A    between atoms: _132  and  _134
REMARK   53  A    between atoms: _134  and  _135
REMARK   54  A    between atoms: _134  and  _137
REMARK   55  A    between atoms: _137  and  _138
REMARK   56  A    between atoms: _148  and  _150
REMARK   57  A    between atoms: _150  and  _151
REMARK   58  A    between atoms: _154  and  _156
REMARK   59  A    between atoms: _156  and  _157
REMARK   60  A    between atoms: _156  and  _159
REMARK   61  A    between atoms: _159  and  _160
REMARK   62  A    between atoms: _166  and  _168
REMARK   63  A    between atoms: _168  and  _169
REMARK   64  A    between atoms: _168  and  _171
REMARK   65  A    between atoms: _173  and  _175
REMARK   66  A    between atoms: _175  and  _176
REMARK   67  A    between atoms: _175  and  _178
REMARK   68  A    between atoms: _178  and  _179
REMARK   69  A    between atoms: _181  and  _183
REMARK   70  A    between atoms: _183  and  _184
REMARK   71  A    between atoms: _186  and  _188
REMARK   72  A    between atoms: _188  and  _189
REMARK   73  A    between atoms: _191  and  _193
REMARK   74  A    between atoms: _193  and  _194
REMARK   75  A    between atoms: _193  and  _196
REMARK   76  A    between atoms: _196  and  _197
REMARK   77  A    between atoms: _200  and  _202
REMARK   78  A    between atoms: _202  and  _203
REMARK   79  A    between atoms: _202  and  _205
REMARK   80  A    between atoms: _205  and  _206
REMARK   81  A    between atoms: _206  and  _207
REMARK   82  A    between atoms: _212  and  _214
REMARK   83  A    between atoms: _214  and  _215
REMARK   84  A    between atoms: _214  and  _217
REMARK   85  A    between atoms: _217  and  _218
REMARK   86  A    between atoms: _218  and  _219
REMARK   87  A    between atoms: _219  and  _220
REMARK   88  A    between atoms: _229  and  _231
REMARK   89  A    between atoms: _231  and  _232
REMARK   90  A    between atoms: _231  and  _234
REMARK   91  A    between atoms: _234  and  _235
REMARK   92  A    between atoms: _238  and  _240
REMARK   93  A    between atoms: _240  and  _241
REMARK   94  A    between atoms: _240  and  _243
REMARK   95  A    between atoms: _243  and  _244
REMARK   96  A    between atoms: _244  and  _245
REMARK   97  A    between atoms: _245  and  _246
REMARK   98  A    between atoms: _255  and  _257
REMARK   99  A    between atoms: _257  and  _258
REMARK  100  A    between atoms: _260  and  _262
REMARK  101  A    between atoms: _262  and  _263
REMARK  102  A    between atoms: _262  and  _265
REMARK  103  A    between atoms: _265  and  _266
REMARK  104  A    between atoms: _271  and  _272
REMARK  105  A    between atoms: _274  and  _276
REMARK  106  A    between atoms: _276  and  _277
REMARK  107  A    between atoms: _276  and  _279
REMARK  108  A    between atoms: _279  and  _280
REMARK  109  A    between atoms: _283  and  _285
REMARK  110  A    between atoms: _285  and  _286
REMARK  111  A    between atoms: _285  and  _288
REMARK  112  A    between atoms: _288  and  _289
REMARK  113  A    between atoms: _289  and  _290
REMARK  114  A    between atoms: _290  and  _291
REMARK  115  A    between atoms: _300  and  _302
REMARK  116  A    between atoms: _302  and  _303
REMARK  117  A    between atoms: _302  and  _305
REMARK  118  A    between atoms: _305  and  _306
REMARK  119  A    between atoms: _309  and  _311
REMARK  120  A    between atoms: _311  and  _312
REMARK  121  A    between atoms: _311  and  _314
REMARK  122  A    between atoms: _314  and  _315
REMARK  123  A    between atoms: _320  and  _322
REMARK  124  A    between atoms: _322  and  _323
REMARK  125  A    between atoms: _322  and  _325
REMARK  126  A    between atoms: _325  and  _326
REMARK  127  A    between atoms: _329  and  _331
REMARK  128  A    between atoms: _331  and  _332
REMARK  129  A    between atoms: _331  and  _334
REMARK  130  A    between atoms: _334  and  _335
REMARK  131  A    between atoms: _338  and  _340
REMARK  132  A    between atoms: _340  and  _341
REMARK  133  A    between atoms: _340  and  _343
REMARK  134  A    between atoms: _343  and  _344
REMARK  135  A    between atoms: _344  and  _345
REMARK  136  A    between atoms: _348  and  _350
REMARK  137  A    between atoms: _350  and  _351
REMARK  138  A    between atoms: _350  and  _353
REMARK  139  A    between atoms: _353  and  _354
REMARK  140  A    between atoms: _354  and  _355
REMARK  141  A    between atoms: _360  and  _362
REMARK  142  A    between atoms: _362  and  _363
REMARK  143  A    between atoms: _365  and  _367
REMARK  144  A    between atoms: _367  and  _368
REMARK  145  A    between atoms: _367  and  _370
REMARK  146  A    between atoms: _370  and  _371
REMARK  147  A    between atoms: _381  and  _383
REMARK  148  A    between atoms: _383  and  _384
REMARK  149  A    between atoms: _387  and  _389
REMARK  150  A    between atoms: _389  and  _390
REMARK  151  A    between atoms: _393  and  _395
REMARK  152  A    between atoms: _395  and  _396
REMARK  153  A    between atoms: _398  and  _400
REMARK  154  A    between atoms: _400  and  _401
REMARK  155  A    between atoms: _403  and  _405
REMARK  156  A    between atoms: _405  and  _406
REMARK  157  A    between atoms: _408  and  _410
REMARK  158  A    between atoms: _410  and  _411
REMARK  159  A    between atoms: _410  and  _413
REMARK  160  A    between atoms: _413  and  _414
REMARK  161  A    between atoms: _419  and  _421
REMARK  162  A    between atoms: _421  and  _422
REMARK  163  A    between atoms: _421  and  _424
REMARK  164  A    between atoms: _424  and  _425
REMARK  165  A    between atoms: _427  and  _429
REMARK  166  A    between atoms: _429  and  _430
REMARK  167  A    between atoms: _429  and  _432
REMARK  168  A    between atoms: _432  and  _433
REMARK  169  A    between atoms: _436  and  _438
REMARK  170  A    between atoms: _438  and  _439
REMARK  171  A    between atoms: _438  and  _441
REMARK  172  A    between atoms: _441  and  _442
REMARK  173  A    between atoms: _442  and  _443
REMARK  174  A    between atoms: _443  and  _444
REMARK  175  A    between atoms: _453  and  _455
REMARK  176  A    between atoms: _455  and  _456
REMARK  177  A    between atoms: _455  and  _458
REMARK  178  A    between atoms: _458  and  _459
REMARK  179  A    between atoms: _465  and  _467
REMARK  180  A    between atoms: _467  and  _468
REMARK  181  A    between atoms: _467  and  _470
REMARK  182  A    between atoms: _470  and  _471
REMARK  183  A    between atoms: _471  and  _472
REMARK  184  A    between atoms: _472  and  _473
REMARK  185  A    between atoms: _473  and  _474
REMARK  186  A    between atoms: _478  and  _480
REMARK  187  A    between atoms: _480  and  _481
REMARK  188  A    between atoms: _480  and  _483
REMARK  189  A    between atoms: _483  and  _484
REMARK  190  A    between atoms: _484  and  _485
REMARK  191  A    between atoms: _490  and  _492
REMARK  192  A    between atoms: _492  and  _493
REMARK  193  A    between atoms: _492  and  _495
REMARK  194  A    between atoms: _495  and  _496
REMARK  195  A    between atoms: _499  and  _501
REMARK  196  A    between atoms: _501  and  _502
REMARK  197  A    between atoms: _501  and  _504
REMARK  198  A    between atoms: _504  and  _505
REMARK  199  A    between atoms: _508  and  _510
REMARK  200  A    between atoms: _510  and  _511
REMARK  201  A    between atoms: _514  and  _516
REMARK  202  A    between atoms: _516  and  _517
REMARK  203  A    between atoms: _516  and  _519
REMARK  204  A    between atoms: _519  and  _520
REMARK  205  A    between atoms: _523  and  _525
REMARK  206  A    between atoms: _525  and  _526
REMARK  207  A    between atoms: _525  and  _528
REMARK  208  A    between atoms: _531  and  _533
REMARK  209  A    between atoms: _533  and  _534
REMARK  210  A    between atoms: _536  and  _538
REMARK  211  A    between atoms: _538  and  _539
REMARK  212  A    between atoms: _538  and  _541
REMARK  213  A    between atoms: _541  and  _542
REMARK  214  A    between atoms: _544  and  _546
REMARK  215  A    between atoms: _546  and  _547
REMARK  216  A    between atoms: _546  and  _549
REMARK  217  A    between atoms: _549  and  _550
REMARK  218  A    between atoms: _556  and  _558
REMARK  219  A    between atoms: _558  and  _559
REMARK  220  A    between atoms: _558  and  _561
REMARK  221  A    between atoms: _561  and  _562
REMARK  222  A    between atoms: _565  and  _567
REMARK  223  A    between atoms: _567  and  _568
REMARK  224  A    between atoms: _570  and  _572
REMARK  225  A    between atoms: _572  and  _573
REMARK  226  A    between atoms: _575  and  _577
REMARK  227  A    between atoms: _577  and  _578
REMARK  228  A    between atoms: _577  and  _580
REMARK  229  A    between atoms: _580  and  _581
REMARK  230  A    between atoms: _586  and  _587
REMARK  231  A    between atoms: _589  and  _591
REMARK  232  A    between atoms: _591  and  _592
REMARK  233  A    between atoms: _594  and  _596
REMARK  234  A    between atoms: _596  and  _597
REMARK  235  A    between atoms: _596  and  _599
REMARK  236  A    between atoms: _599  and  _600
REMARK  237  A    between atoms: _606  and  _608
REMARK  238  A    between atoms: _608  and  _609
REMARK  239  A    between atoms: _608  and  _611
REMARK  240  A    between atoms: _611  and  _612
REMARK  241  A    between atoms: _615  and  _617
REMARK  242  A    between atoms: _617  and  _618
REMARK  243  A    between atoms: _617  and  _620
REMARK  244  A    between atoms: _620  and  _621
REMARK  245  A    between atoms: _621  and  _622
REMARK  246  A    between atoms: _627  and  _629
REMARK  247  A    between atoms: _629  and  _630
REMARK  248  A    between atoms: _633  and  _635
REMARK  249  A    between atoms: _635  and  _636
REMARK  250  A    between atoms: _638  and  _640
REMARK  251  A    between atoms: _640  and  _641
REMARK  252  A    between atoms: _640  and  _643
REMARK  253  A    between atoms: _643  and  _644
REMARK  254  A    between atoms: _644  and  _645
REMARK  255  A    between atoms: _648  and  _650
REMARK  256  A    between atoms: _650  and  _651
REMARK  257  A    between atoms: _650  and  _653
REMARK  258  A    between atoms: _653  and  _654
REMARK  259  A    between atoms: _657  and  _659
REMARK  260  A    between atoms: _659  and  _660
REMARK  261  A    between atoms: _659  and  _662
REMARK  262  A    between atoms: _662  and  _663
REMARK  263  A    between atoms: _663  and  _664
REMARK  264  A    between atoms: _664  and  _665
REMARK  265  A    between atoms: _674  and  _676
REMARK  266  A    between atoms: _676  and  _677
REMARK  267  A    between atoms: _676  and  _679
REMARK  268  A    between atoms: _679  and  _680
REMARK  269  A    between atoms: _685  and  _686
REMARK  270  A    between atoms: _688  and  _690
REMARK  271  A    between atoms: _690  and  _691
REMARK  272  A    between atoms: _693  and  _695
REMARK  273  A    between atoms: _695  and  _696
REMARK  274  A    between atoms: _695  and  _698
REMARK  275  A    between atoms: _698  and  _699
REMARK  276  A    between atoms: _705  and  _707
REMARK  277  A    between atoms: _707  and  _708
REMARK  278  A    between atoms: _707  and  _710
REMARK  279  A    between atoms: _710  and  _711
REMARK  280  A    between atoms: _714  and  _716
REMARK  281  A    between atoms: _716  and  _717
REMARK  282  A    between atoms: _716  and  _719
REMARK  283  A    between atoms: _719  and  _720
REMARK  284  A    between atoms: _720  and  _721
REMARK  285  A    between atoms: _726  and  _728
REMARK  286  A    between atoms: _728  and  _729
REMARK  287  A    between atoms: _728  and  _731
REMARK  288  A    between atoms: _731  and  _732
REMARK  289  A    between atoms: _732  and  _733
REMARK  290  A    between atoms: _733  and  _734
REMARK  291  A    between atoms: _734  and  _735
REMARK                            x       y       z     vdW  Elec       q    Type
REMARK                         _______ _______ _______ _____ _____    ______ ____
ROOT
ATOM      1  O   HOH     1      36.458 -11.219 177.159  0.00  0.00    +0.000 OA
ENDROOT
TORSDOF 0
REMARK  Name = ../refined-set-2016/4qij/4qij_pocket.pdb
REMARK  291 active torsions:
REMARK  status: ('A' for Active; 'I' for Inactive)
REMARK    1  A    between atoms: _1  and  _3
REMARK    2  A    between atoms: _3  and  _4
REMARK    3  A    between atoms: _3  and  _6
REMARK    4  A    between atoms: _6  and  _7
REMARK    5  A    between atoms: _7  and  _8
REMARK    6  A    between atoms: _8  and  _9
REMARK    7  A    between atoms: _19  and  _20
REMARK    8  A    between atoms: _25  and  _27
REMARK    9  A    between atoms: _27  and  _28
REMARK   10  A    between atoms: _27  and  _30
REMARK   11  A    between atoms: _30  and  _31
REMARK   12  A    between atoms: _31  and  _32
REMARK   13  A    between atoms: _35  and  _37
REMARK   14  A    between atoms: _37  and  _38
REMARK   15  A    between atoms: _37  and  _40
REMARK   16  A    between atoms: _43  and  _45
REMARK   17  A    between atoms: _45  and  _46
REMARK   18  A    between atoms: _45  and  _48
REMARK   19  A    between atoms: _48  and  _49
REMARK   20  A    between atoms: _49  and  _50
REMARK   21  A    between atoms: _50  and  _51
REMARK   22  A    between atoms: _60  and  _62
REMARK   23  A    between atoms: _62  and  _63
REMARK   24  A    between atoms: _62  and  _65
REMARK   25  A    between atoms: _65  and  _66
REMARK   26  A    between atoms: _71  and  _73
REMARK   27  A    between atoms: _73  and  _74
REMARK   28  A    between atoms: _77  and  _79
REMARK   29  A    between atoms: _79  and  _80
REMARK   30  A    between atoms: _79  and  _82
REMARK   31  A    between atoms: _82  and  _83
REMARK   32  A    between atoms: _89  and  _91
REMARK   33  A    between atoms: _91  and  _92
REMARK   34  A    between atoms: _91  and  _94
REMARK   35  A    between atoms: _97  and  _99
REMARK   36  A    between atoms: _99  and  _100
REMARK   37  A    between atoms: _99  and  _102
REMARK   38  A    between atoms: _102  and  _103
REMARK   39  A    between atoms: _105  and  _107
REMARK   40  A    between atoms: _107  and  _108
REMARK   41  A    between atoms: _107  and  _110
REMARK   42  A    between atoms: _110  and  _111
REMARK   43  A    between atoms: _111  and  _112
REMARK   44  A    between atoms: _112  and  _113
REMARK   45  A    between atoms: _113  and  _114
REMARK   46  A    between atoms: _118  and  _120
REMARK   47  A    between atoms: _120  and  _121
REMARK   48  A    between atoms: _120  and  _123
REMARK   49  A    between atoms: _123  and  _124
REMARK   50  A    between atoms: _127  and  _129
REMARK   51  A    between atoms: _129  and  _130
REMARK   52  A    between atoms: _132  and  _134
REMARK   53  A    between atoms: _134  and  _135
REMARK   54  A    between atoms: _134  and  _137
REMARK   55  A    between atoms: _137  and  _138
REMARK   56  A    between atoms: _148  and  _150
REMARK   57  A    between atoms: _150  and  _151
REMARK   58  A    between atoms: _154  and  _156
REMARK   59  A    between atoms: _156  and  _157
REMARK   60  A    between atoms: _156  and  _159
REMARK   61  A    between atoms: _159  and  _160
REMARK   62  A    between atoms: _166  and  _168
REMARK   63  A    between atoms: _168  and  _169
REMARK   64  A    between atoms: _168  and  _171
REMARK   65  A    between atoms: _173  and  _175
REMARK   66  A    between atoms: _175  and  _176
REMARK   67  A    between atoms: _175  and  _178
REMARK   68  A    between atoms: _178  and  _179
REMARK   69  A    between atoms: _181  and  _183
REMARK   70  A    between atoms: _183  and  _184
REMARK   71  A    between atoms: _186  and  _188
REMARK   72  A    between atoms: _188  and  _189
REMARK   73  A    between atoms: _191  and  _193
REMARK   74  A    between atoms: _193  and  _194
REMARK   75  A    between atoms: _193  and  _196
REMARK   76  A    between atoms: _196  and  _197
REMARK   77  A    between atoms: _200  and  _202
REMARK   78  A    between atoms: _202  and  _203
REMARK   79  A    between atoms: _202  and  _205
REMARK   80  A    between atoms: _205  and  _206
REMARK   81  A    between atoms: _206  and  _207
REMARK   82  A    between atoms: _212  and  _214
REMARK   83  A    between atoms: _214  and  _215
REMARK   84  A    between atoms: _214  and  _217
REMARK   85  A    between atoms: _217  and  _218
REMARK   86  A    between atoms: _218  and  _219
REMARK   87  A    between atoms: _219  and  _220
REMARK   88  A    between atoms: _229  and  _231
REMARK   89  A    between atoms: _231  and  _232
REMARK   90  A    between atoms: _231  and  _234
REMARK   91  A    between atoms: _234  and  _235
REMARK   92  A    between atoms: _238  and  _240
REMARK   93  A    between atoms: _240  and  _241
REMARK   94  A    between atoms: _240  and  _243
REMARK   95  A    between atoms: _243  and  _244
REMARK   96  A    between atoms: _244  and  _245
REMARK   97  A    between atoms: _245  and  _246
REMARK   98  A    between atoms: _255  and  _257
REMARK   99  A    between atoms: _257  and  _258
REMARK  100  A    between atoms: _260  and  _262
REMARK  101  A    between atoms: _262  and  _263
REMARK  102  A    between atoms: _262  and  _265
REMARK  103  A    between atoms: _265  and  _266
REMARK  104  A    between atoms: _271  and  _272
REMARK  105  A    between atoms: _274  and  _276
REMARK  106  A    between atoms: _276  and  _277
REMARK  107  A    between atoms: _276  and  _279
REMARK  108  A    between atoms: _279  and  _280
REMARK  109  A    between atoms: _283  and  _285
REMARK  110  A    between atoms: _285  and  _286
REMARK  111  A    between atoms: _285  and  _288
REMARK  112  A    between atoms: _288  and  _289
REMARK  113  A    between atoms: _289  and  _290
REMARK  114  A    between atoms: _290  and  _291
REMARK  115  A    between atoms: _300  and  _302
REMARK  116  A    between atoms: _302  and  _303
REMARK  117  A    between atoms: _302  and  _305
REMARK  118  A    between atoms: _305  and  _306
REMARK  119  A    between atoms: _309  and  _311
REMARK  120  A    between atoms: _311  and  _312
REMARK  121  A    between atoms: _311  and  _314
REMARK  122  A    between atoms: _314  and  _315
REMARK  123  A    between atoms: _320  and  _322
REMARK  124  A    between atoms: _322  and  _323
REMARK  125  A    between atoms: _322  and  _325
REMARK  126  A    between atoms: _325  and  _326
REMARK  127  A    between atoms: _329  and  _331
REMARK  128  A    between atoms: _331  and  _332
REMARK  129  A    between atoms: _331  and  _334
REMARK  130  A    between atoms: _334  and  _335
REMARK  131  A    between atoms: _338  and  _340
REMARK  132  A    between atoms: _340  and  _341
REMARK  133  A    between atoms: _340  and  _343
REMARK  134  A    between atoms: _343  and  _344
REMARK  135  A    between atoms: _344  and  _345
REMARK  136  A    between atoms: _348  and  _350
REMARK  137  A    between atoms: _350  and  _351
REMARK  138  A    between atoms: _350  and  _353
REMARK  139  A    between atoms: _353  and  _354
REMARK  140  A    between atoms: _354  and  _355
REMARK  141  A    between atoms: _360  and  _362
REMARK  142  A    between atoms: _362  and  _363
REMARK  143  A    between atoms: _365  and  _367
REMARK  144  A    between atoms: _367  and  _368
REMARK  145  A    between atoms: _367  and  _370
REMARK  146  A    between atoms: _370  and  _371
REMARK  147  A    between atoms: _381  and  _383
REMARK  148  A    between atoms: _383  and  _384
REMARK  149  A    between atoms: _387  and  _389
REMARK  150  A    between atoms: _389  and  _390
REMARK  151  A    between atoms: _393  and  _395
REMARK  152  A    between atoms: _395  and  _396
REMARK  153  A    between atoms: _398  and  _400
REMARK  154  A    between atoms: _400  and  _401
REMARK  155  A    between atoms: _403  and  _405
REMARK  156  A    between atoms: _405  and  _406
REMARK  157  A    between atoms: _408  and  _410
REMARK  158  A    between atoms: _410  and  _411
REMARK  159  A    between atoms: _410  and  _413
REMARK  160  A    between atoms: _413  and  _414
REMARK  161  A    between atoms: _419  and  _421
REMARK  162  A    between atoms: _421  and  _422
REMARK  163  A    between atoms: _421  and  _424
REMARK  164  A    between atoms: _424  and  _425
REMARK  165  A    between atoms: _427  and  _429
REMARK  166  A    between atoms: _429  and  _430
REMARK  167  A    between atoms: _429  and  _432
REMARK  168  A    between atoms: _432  and  _433
REMARK  169  A    between atoms: _436  and  _438
REMARK  170  A    between atoms: _438  and  _439
REMARK  171  A    between atoms: _438  and  _441
REMARK  172  A    between atoms: _441  and  _442
REMARK  173  A    between atoms: _442  and  _443
REMARK  174  A    between atoms: _443  and  _444
REMARK  175  A    between atoms: _453  and  _455
REMARK  176  A    between atoms: _455  and  _456
REMARK  177  A    between atoms: _455  and  _458
REMARK  178  A    between atoms: _458  and  _459
REMARK  179  A    between atoms: _465  and  _467
REMARK  180  A    between atoms: _467  and  _468
REMARK  181  A    between atoms: _467  and  _470
REMARK  182  A    between atoms: _470  and  _471
REMARK  183  A    between atoms: _471  and  _472
REMARK  184  A    between atoms: _472  and  _473
REMARK  185  A    between atoms: _473  and  _474
REMARK  186  A    between atoms: _478  and  _480
REMARK  187  A    between atoms: _480  and  _481
REMARK  188  A    between atoms: _480  and  _483
REMARK  189  A    between atoms: _483  and  _484
REMARK  190  A    between atoms: _484  and  _485
REMARK  191  A    between atoms: _490  and  _492
REMARK  192  A    between atoms: _492  and  _493
REMARK  193  A    between atoms: _492  and  _495
REMARK  194  A    between atoms: _495  and  _496
REMARK  195  A    between atoms: _499  and  _501
REMARK  196  A    between atoms: _501  and  _502
REMARK  197  A    between atoms: _501  and  _504
REMARK  198  A    between atoms: _504  and  _505
REMARK  199  A    between atoms: _508  and  _510
REMARK  200  A    between atoms: _510  and  _511
REMARK  201  A    between atoms: _514  and  _516
REMARK  202  A    between atoms: _516  and  _517
REMARK  203  A    between atoms: _516  and  _519
REMARK  204  A    between atoms: _519  and  _520
REMARK  205  A    between atoms: _523  and  _525
REMARK  206  A    between atoms: _525  and  _526
REMARK  207  A    between atoms: _525  and  _528
REMARK  208  A    between atoms: _531  and  _533
REMARK  209  A    between atoms: _533  and  _534
REMARK  210  A    between atoms: _536  and  _538
REMARK  211  A    between atoms: _538  and  _539
REMARK  212  A    between atoms: _538  and  _541
REMARK  213  A    between atoms: _541  and  _542
REMARK  214  A    between atoms: _544  and  _546
REMARK  215  A    between atoms: _546  and  _547
REMARK  216  A    between atoms: _546  and  _549
REMARK  217  A    between atoms: _549  and  _550
REMARK  218  A    between atoms: _556  and  _558
REMARK  219  A    between atoms: _558  and  _559
REMARK  220  A    between atoms: _558  and  _561
REMARK  221  A    between atoms: _561  and  _562
REMARK  222  A    between atoms: _565  and  _567
REMARK  223  A    between atoms: _567  and  _568
REMARK  224  A    between atoms: _570  and  _572
REMARK  225  A    between atoms: _572  and  _573
REMARK  226  A    between atoms: _575  and  _577
REMARK  227  A    between atoms: _577  and  _578
REMARK  228  A    between atoms: _577  and  _580
REMARK  229  A    between atoms: _580  and  _581
REMARK  230  A    between atoms: _586  and  _587
REMARK  231  A    between atoms: _589  and  _591
REMARK  232  A    between atoms: _591  and  _592
REMARK  233  A    between atoms: _594  and  _596
REMARK  234  A    between atoms: _596  and  _597
REMARK  235  A    between atoms: _596  and  _599
REMARK  236  A    between atoms: _599  and  _600
REMARK  237  A    between atoms: _606  and  _608
REMARK  238  A    between atoms: _608  and  _609
REMARK  239  A    between atoms: _608  and  _611
REMARK  240  A    between atoms: _611  and  _612
REMARK  241  A    between atoms: _615  and  _617
REMARK  242  A    between atoms: _617  and  _618
REMARK  243  A    between atoms: _617  and  _620
REMARK  244  A    between atoms: _620  and  _621
REMARK  245  A    between atoms: _621  and  _622
REMARK  246  A    between atoms: _627  and  _629
REMARK  247  A    between atoms: _629  and  _630
REMARK  248  A    between atoms: _633  and  _635
REMARK  249  A    between atoms: _635  and  _636
REMARK  250  A    between atoms: _638  and  _640
REMARK  251  A    between atoms: _640  and  _641
REMARK  252  A    between atoms: _640  and  _643
REMARK  253  A    between atoms: _643  and  _644
REMARK  254  A    between atoms: _644  and  _645
REMARK  255  A    between atoms: _648  and  _650
REMARK  256  A    between atoms: _650  and  _651
REMARK  257  A    between atoms: _650  and  _653
REMARK  258  A    between atoms: _653  and  _654
REMARK  259  A    between atoms: _657  and  _659
REMARK  260  A    between atoms: _659  and  _660
REMARK  261  A    between atoms: _659  and  _662
REMARK  262  A    between atoms: _662  and  _663
REMARK  263  A    between atoms: _663  and  _664
REMARK  264  A    between atoms: _664  and  _665
REMARK  265  A    between atoms: _674  and  _676
REMARK  266  A    between atoms: _676  and  _677
REMARK  267  A    between atoms: _676  and  _679
REMARK  268  A    between atoms: _679  and  _680
REMARK  269  A    between atoms: _685  and  _686
REMARK  270  A    between atoms: _688  and  _690
REMARK  271  A    between atoms: _690  and  _691
REMARK  272  A    between atoms: _693  and  _695
REMARK  273  A    between atoms: _695  and  _696
REMARK  274  A    between atoms: _695  and  _698
REMARK  275  A    between atoms: _698  and  _699
REMARK  276  A    between atoms: _705  and  _707
REMARK  277  A    between atoms: _707  and  _708
REMARK  278  A    between atoms: _707  and  _710
REMARK  279  A    between atoms: _710  and  _711
REMARK  280  A    between atoms: _714  and  _716
REMARK  281  A    between atoms: _716  and  _717
REMARK  282  A    between atoms: _716  and  _719
REMARK  283  A    between atoms: _719  and  _720
REMARK  284  A    between atoms: _720  and  _721
REMARK  285  A    between atoms: _726  and  _728
REMARK  286  A    between atoms: _728  and  _729
REMARK  287  A    between atoms: _728  and  _731
REMARK  288  A    between atoms: _731  and  _732
REMARK  289  A    between atoms: _732  and  _733
REMARK  290  A    between atoms: _733  and  _734
REMARK  291  A    between atoms: _734  and  _735
REMARK                            x       y       z     vdW  Elec       q    Type
REMARK                         _______ _______ _______ _____ _____    ______ ____
ROOT
ATOM      1  O   HOH     1      31.501 -10.594 173.330  0.00  0.00    +0.000 OA
ENDROOT
TORSDOF 0
REMARK  Name = ../refined-set-2016/4qij/4qij_pocket.pdb
REMARK  291 active torsions:
REMARK  status: ('A' for Active; 'I' for Inactive)
REMARK    1  A    between atoms: _1  and  _3
REMARK    2  A    between atoms: _3  and  _4
REMARK    3  A    between atoms: _3  and  _6
REMARK    4  A    between atoms: _6  and  _7
REMARK    5  A    between atoms: _7  and  _8
REMARK    6  A    between atoms: _8  and  _9
REMARK    7  A    between atoms: _19  and  _20
REMARK    8  A    between atoms: _25  and  _27
REMARK    9  A    between atoms: _27  and  _28
REMARK   10  A    between atoms: _27  and  _30
REMARK   11  A    between atoms: _30  and  _31
REMARK   12  A    between atoms: _31  and  _32
REMARK   13  A    between atoms: _35  and  _37
REMARK   14  A    between atoms: _37  and  _38
REMARK   15  A    between atoms: _37  and  _40
REMARK   16  A    between atoms: _43  and  _45
REMARK   17  A    between atoms: _45  and  _46
REMARK   18  A    between atoms: _45  and  _48
REMARK   19  A    between atoms: _48  and  _49
REMARK   20  A    between atoms: _49  and  _50
REMARK   21  A    between atoms: _50  and  _51
REMARK   22  A    between atoms: _60  and  _62
REMARK   23  A    between atoms: _62  and  _63
REMARK   24  A    between atoms: _62  and  _65
REMARK   25  A    between atoms: _65  and  _66
REMARK   26  A    between atoms: _71  and  _73
REMARK   27  A    between atoms: _73  and  _74
REMARK   28  A    between atoms: _77  and  _79
REMARK   29  A    between atoms: _79  and  _80
REMARK   30  A    between atoms: _79  and  _82
REMARK   31  A    between atoms: _82  and  _83
REMARK   32  A    between atoms: _89  and  _91
REMARK   33  A    between atoms: _91  and  _92
REMARK   34  A    between atoms: _91  and  _94
REMARK   35  A    between atoms: _97  and  _99
REMARK   36  A    between atoms: _99  and  _100
REMARK   37  A    between atoms: _99  and  _102
REMARK   38  A    between atoms: _102  and  _103
REMARK   39  A    between atoms: _105  and  _107
REMARK   40  A    between atoms: _107  and  _108
REMARK   41  A    between atoms: _107  and  _110
REMARK   42  A    between atoms: _110  and  _111
REMARK   43  A    between atoms: _111  and  _112
REMARK   44  A    between atoms: _112  and  _113
REMARK   45  A    between atoms: _113  and  _114
REMARK   46  A    between atoms: _118  and  _120
REMARK   47  A    between atoms: _120  and  _121
REMARK   48  A    between atoms: _120  and  _123
REMARK   49  A    between atoms: _123  and  _124
REMARK   50  A    between atoms: _127  and  _129
REMARK   51  A    between atoms: _129  and  _130
REMARK   52  A    between atoms: _132  and  _134
REMARK   53  A    between atoms: _134  and  _135
REMARK   54  A    between atoms: _134  and  _137
REMARK   55  A    between atoms: _137  and  _138
REMARK   56  A    between atoms: _148  and  _150
REMARK   57  A    between atoms: _150  and  _151
REMARK   58  A    between atoms: _154  and  _156
REMARK   59  A    between atoms: _156  and  _157
REMARK   60  A    between atoms: _156  and  _159
REMARK   61  A    between atoms: _159  and  _160
REMARK   62  A    between atoms: _166  and  _168
REMARK   63  A    between atoms: _168  and  _169
REMARK   64  A    between atoms: _168  and  _171
REMARK   65  A    between atoms: _173  and  _175
REMARK   66  A    between atoms: _175  and  _176
REMARK   67  A    between atoms: _175  and  _178
REMARK   68  A    between atoms: _178  and  _179
REMARK   69  A    between atoms: _181  and  _183
REMARK   70  A    between atoms: _183  and  _184
REMARK   71  A    between atoms: _186  and  _188
REMARK   72  A    between atoms: _188  and  _189
REMARK   73  A    between atoms: _191  and  _193
REMARK   74  A    between atoms: _193  and  _194
REMARK   75  A    between atoms: _193  and  _196
REMARK   76  A    between atoms: _196  and  _197
REMARK   77  A    between atoms: _200  and  _202
REMARK   78  A    between atoms: _202  and  _203
REMARK   79  A    between atoms: _202  and  _205
REMARK   80  A    between atoms: _205  and  _206
REMARK   81  A    between atoms: _206  and  _207
REMARK   82  A    between atoms: _212  and  _214
REMARK   83  A    between atoms: _214  and  _215
REMARK   84  A    between atoms: _214  and  _217
REMARK   85  A    between atoms: _217  and  _218
REMARK   86  A    between atoms: _218  and  _219
REMARK   87  A    between atoms: _219  and  _220
REMARK   88  A    between atoms: _229  and  _231
REMARK   89  A    between atoms: _231  and  _232
REMARK   90  A    between atoms: _231  and  _234
REMARK   91  A    between atoms: _234  and  _235
REMARK   92  A    between atoms: _238  and  _240
REMARK   93  A    between atoms: _240  and  _241
REMARK   94  A    between atoms: _240  and  _243
REMARK   95  A    between atoms: _243  and  _244
REMARK   96  A    between atoms: _244  and  _245
REMARK   97  A    between atoms: _245  and  _246
REMARK   98  A    between atoms: _255  and  _257
REMARK   99  A    between atoms: _257  and  _258
REMARK  100  A    between atoms: _260  and  _262
REMARK  101  A    between atoms: _262  and  _263
REMARK  102  A    between atoms: _262  and  _265
REMARK  103  A    between atoms: _265  and  _266
REMARK  104  A    between atoms: _271  and  _272
REMARK  105  A    between atoms: _274  and  _276
REMARK  106  A    between atoms: _276  and  _277
REMARK  107  A    between atoms: _276  and  _279
REMARK  108  A    between atoms: _279  and  _280
REMARK  109  A    between atoms: _283  and  _285
REMARK  110  A    between atoms: _285  and  _286
REMARK  111  A    between atoms: _285  and  _288
REMARK  112  A    between atoms: _288  and  _289
REMARK  113  A    between atoms: _289  and  _290
REMARK  114  A    between atoms: _290  and  _291
REMARK  115  A    between atoms: _300  and  _302
REMARK  116  A    between atoms: _302  and  _303
REMARK  117  A    between atoms: _302  and  _305
REMARK  118  A    between atoms: _305  and  _306
REMARK  119  A    between atoms: _309  and  _311
REMARK  120  A    between atoms: _311  and  _312
REMARK  121  A    between atoms: _311  and  _314
REMARK  122  A    between atoms: _314  and  _315
REMARK  123  A    between atoms: _320  and  _322
REMARK  124  A    between atoms: _322  and  _323
REMARK  125  A    between atoms: _322  and  _325
REMARK  126  A    between atoms: _325  and  _326
REMARK  127  A    between atoms: _329  and  _331
REMARK  128  A    between atoms: _331  and  _332
REMARK  129  A    between atoms: _331  and  _334
REMARK  130  A    between atoms: _334  and  _335
REMARK  131  A    between atoms: _338  and  _340
REMARK  132  A    between atoms: _340  and  _341
REMARK  133  A    between atoms: _340  and  _343
REMARK  134  A    between atoms: _343  and  _344
REMARK  135  A    between atoms: _344  and  _345
REMARK  136  A    between atoms: _348  and  _350
REMARK  137  A    between atoms: _350  and  _351
REMARK  138  A    between atoms: _350  and  _353
REMARK  139  A    between atoms: _353  and  _354
REMARK  140  A    between atoms: _354  and  _355
REMARK  141  A    between atoms: _360  and  _362
REMARK  142  A    between atoms: _362  and  _363
REMARK  143  A    between atoms: _365  and  _367
REMARK  144  A    between atoms: _367  and  _368
REMARK  145  A    between atoms: _367  and  _370
REMARK  146  A    between atoms: _370  and  _371
REMARK  147  A    between atoms: _381  and  _383
REMARK  148  A    between atoms: _383  and  _384
REMARK  149  A    between atoms: _387  and  _389
REMARK  150  A    between atoms: _389  and  _390
REMARK  151  A    between atoms: _393  and  _395
REMARK  152  A    between atoms: _395  and  _396
REMARK  153  A    between atoms: _398  and  _400
REMARK  154  A    between atoms: _400  and  _401
REMARK  155  A    between atoms: _403  and  _405
REMARK  156  A    between atoms: _405  and  _406
REMARK  157  A    between atoms: _408  and  _410
REMARK  158  A    between atoms: _410  and  _411
REMARK  159  A    between atoms: _410  and  _413
REMARK  160  A    between atoms: _413  and  _414
REMARK  161  A    between atoms: _419  and  _421
REMARK  162  A    between atoms: _421  and  _422
REMARK  163  A    between atoms: _421  and  _424
REMARK  164  A    between atoms: _424  and  _425
REMARK  165  A    between atoms: _427  and  _429
REMARK  166  A    between atoms: _429  and  _430
REMARK  167  A    between atoms: _429  and  _432
REMARK  168  A    between atoms: _432  and  _433
REMARK  169  A    between atoms: _436  and  _438
REMARK  170  A    between atoms: _438  and  _439
REMARK  171  A    between atoms: _438  and  _441
REMARK  172  A    between atoms: _441  and  _442
REMARK  173  A    between atoms: _442  and  _443
REMARK  174  A    between atoms: _443  and  _444
REMARK  175  A    between atoms: _453  and  _455
REMARK  176  A    between atoms: _455  and  _456
REMARK  177  A    between atoms: _455  and  _458
REMARK  178  A    between atoms: _458  and  _459
REMARK  179  A    between atoms: _465  and  _467
REMARK  180  A    between atoms: _467  and  _468
REMARK  181  A    between atoms: _467  and  _470
REMARK  182  A    between atoms: _470  and  _471
REMARK  183  A    between atoms: _471  and  _472
REMARK  184  A    between atoms: _472  and  _473
REMARK  185  A    between atoms: _473  and  _474
REMARK  186  A    between atoms: _478  and  _480
REMARK  187  A    between atoms: _480  and  _481
REMARK  188  A    between atoms: _480  and  _483
REMARK  189  A    between atoms: _483  and  _484
REMARK  190  A    between atoms: _484  and  _485
REMARK  191  A    between atoms: _490  and  _492
REMARK  192  A    between atoms: _492  and  _493
REMARK  193  A    between atoms: _492  and  _495
REMARK  194  A    between atoms: _495  and  _496
REMARK  195  A    between atoms: _499  and  _501
REMARK  196  A    between atoms: _501  and  _502
REMARK  197  A    between atoms: _501  and  _504
REMARK  198  A    between atoms: _504  and  _505
REMARK  199  A    between atoms: _508  and  _510
REMARK  200  A    between atoms: _510  and  _511
REMARK  201  A    between atoms: _514  and  _516
REMARK  202  A    between atoms: _516  and  _517
REMARK  203  A    between atoms: _516  and  _519
REMARK  204  A    between atoms: _519  and  _520
REMARK  205  A    between atoms: _523  and  _525
REMARK  206  A    between atoms: _525  and  _526
REMARK  207  A    between atoms: _525  and  _528
REMARK  208  A    between atoms: _531  and  _533
REMARK  209  A    between atoms: _533  and  _534
REMARK  210  A    between atoms: _536  and  _538
REMARK  211  A    between atoms: _538  and  _539
REMARK  212  A    between atoms: _538  and  _541
REMARK  213  A    between atoms: _541  and  _542
REMARK  214  A    between atoms: _544  and  _546
REMARK  215  A    between atoms: _546  and  _547
REMARK  216  A    between atoms: _546  and  _549
REMARK  217  A    between atoms: _549  and  _550
REMARK  218  A    between atoms: _556  and  _558
REMARK  219  A    between atoms: _558  and  _559
REMARK  220  A    between atoms: _558  and  _561
REMARK  221  A    between atoms: _561  and  _562
REMARK  222  A    between atoms: _565  and  _567
REMARK  223  A    between atoms: _567  and  _568
REMARK  224  A    between atoms: _570  and  _572
REMARK  225  A    between atoms: _572  and  _573
REMARK  226  A    between atoms: _575  and  _577
REMARK  227  A    between atoms: _577  and  _578
REMARK  228  A    between atoms: _577  and  _580
REMARK  229  A    between atoms: _580  and  _581
REMARK  230  A    between atoms: _586  and  _587
REMARK  231  A    between atoms: _589  and  _591
REMARK  232  A    between atoms: _591  and  _592
REMARK  233  A    between atoms: _594  and  _596
REMARK  234  A    between atoms: _596  and  _597
REMARK  235  A    between atoms: _596  and  _599
REMARK  236  A    between atoms: _599  and  _600
REMARK  237  A    between atoms: _606  and  _608
REMARK  238  A    between atoms: _608  and  _609
REMARK  239  A    between atoms: _608  and  _611
REMARK  240  A    between atoms: _611  and  _612
REMARK  241  A    between atoms: _615  and  _617
REMARK  242  A    between atoms: _617  and  _618
REMARK  243  A    between atoms: _617  and  _620
REMARK  244  A    between atoms: _620  and  _621
REMARK  245  A    between atoms: _621  and  _622
REMARK  246  A    between atoms: _627  and  _629
REMARK  247  A    between atoms: _629  and  _630
REMARK  248  A    between atoms: _633  and  _635
REMARK  249  A    between atoms: _635  and  _636
REMARK  250  A    between atoms: _638  and  _640
REMARK  251  A    between atoms: _640  and  _641
REMARK  252  A    between atoms: _640  and  _643
REMARK  253  A    between atoms: _643  and  _644
REMARK  254  A    between atoms: _644  and  _645
REMARK  255  A    between atoms: _648  and  _650
REMARK  256  A    between atoms: _650  and  _651
REMARK  257  A    between atoms: _650  and  _653
REMARK  258  A    between atoms: _653  and  _654
REMARK  259  A    between atoms: _657  and  _659
REMARK  260  A    between atoms: _659  and  _660
REMARK  261  A    between atoms: _659  and  _662
REMARK  262  A    between atoms: _662  and  _663
REMARK  263  A    between atoms: _663  and  _664
REMARK  264  A    between atoms: _664  and  _665
REMARK  265  A    between atoms: _674  and  _676
REMARK  266  A    between atoms: _676  and  _677
REMARK  267  A    between atoms: _676  and  _679
REMARK  268  A    between atoms: _679  and  _680
REMARK  269  A    between atoms: _685  and  _686
REMARK  270  A    between atoms: _688  and  _690
REMARK  271  A    between atoms: _690  and  _691
REMARK  272  A    between atoms: _693  and  _695
REMARK  273  A    between atoms: _695  and  _696
REMARK  274  A    between atoms: _695  and  _698
REMARK  275  A    between atoms: _698  and  _699
REMARK  276  A    between atoms: _705  and  _707
REMARK  277  A    between atoms: _707  and  _708
REMARK  278  A    between atoms: _707  and  _710
REMARK  279  A    between atoms: _710  and  _711
REMARK  280  A    between atoms: _714  and  _716
REMARK  281  A    between atoms: _716  and  _717
REMARK  282  A    between atoms: _716  and  _719
REMARK  283  A    between atoms: _719  and  _720
REMARK  284  A    between atoms: _720  and  _721
REMARK  285  A    between atoms: _726  and  _728
REMARK  286  A    between atoms: _728  and  _729
REMARK  287  A    between atoms: _728  and  _731
REMARK  288  A    between atoms: _731  and  _732
REMARK  289  A    between atoms: _732  and  _733
REMARK  290  A    between atoms: _733  and  _734
REMARK  291  A    between atoms: _734  and  _735
REMARK                            x       y       z     vdW  Elec       q    Type
REMARK                         _______ _______ _______ _____ _____    ______ ____
ROOT
ATOM      1  O   HOH     1      31.672 -22.448 197.846  0.00  0.00    +0.000 OA
ENDROOT
TORSDOF 0
REMARK  Name = ../refined-set-2016/4qij/4qij_pocket.pdb
REMARK  291 active torsions:
REMARK  status: ('A' for Active; 'I' for Inactive)
REMARK    1  A    between atoms: _1  and  _3
REMARK    2  A    between atoms: _3  and  _4
REMARK    3  A    between atoms: _3  and  _6
REMARK    4  A    between atoms: _6  and  _7
REMARK    5  A    between atoms: _7  and  _8
REMARK    6  A    between atoms: _8  and  _9
REMARK    7  A    between atoms: _19  and  _20
REMARK    8  A    between atoms: _25  and  _27
REMARK    9  A    between atoms: _27  and  _28
REMARK   10  A    between atoms: _27  and  _30
REMARK   11  A    between atoms: _30  and  _31
REMARK   12  A    between atoms: _31  and  _32
REMARK   13  A    between atoms: _35  and  _37
REMARK   14  A    between atoms: _37  and  _38
REMARK   15  A    between atoms: _37  and  _40
REMARK   16  A    between atoms: _43  and  _45
REMARK   17  A    between atoms: _45  and  _46
REMARK   18  A    between atoms: _45  and  _48
REMARK   19  A    between atoms: _48  and  _49
REMARK   20  A    between atoms: _49  and  _50
REMARK   21  A    between atoms: _50  and  _51
REMARK   22  A    between atoms: _60  and  _62
REMARK   23  A    between atoms: _62  and  _63
REMARK   24  A    between atoms: _62  and  _65
REMARK   25  A    between atoms: _65  and  _66
REMARK   26  A    between atoms: _71  and  _73
REMARK   27  A    between atoms: _73  and  _74
REMARK   28  A    between atoms: _77  and  _79
REMARK   29  A    between atoms: _79  and  _80
REMARK   30  A    between atoms: _79  and  _82
REMARK   31  A    between atoms: _82  and  _83
REMARK   32  A    between atoms: _89  and  _91
REMARK   33  A    between atoms: _91  and  _92
REMARK   34  A    between atoms: _91  and  _94
REMARK   35  A    between atoms: _97  and  _99
REMARK   36  A    between atoms: _99  and  _100
REMARK   37  A    between atoms: _99  and  _102
REMARK   38  A    between atoms: _102  and  _103
REMARK   39  A    between atoms: _105  and  _107
REMARK   40  A    between atoms: _107  and  _108
REMARK   41  A    between atoms: _107  and  _110
REMARK   42  A    between atoms: _110  and  _111
REMARK   43  A    between atoms: _111  and  _112
REMARK   44  A    between atoms: _112  and  _113
REMARK   45  A    between atoms: _113  and  _114
REMARK   46  A    between atoms: _118  and  _120
REMARK   47  A    between atoms: _120  and  _121
REMARK   48  A    between atoms: _120  and  _123
REMARK   49  A    between atoms: _123  and  _124
REMARK   50  A    between atoms: _127  and  _129
REMARK   51  A    between atoms: _129  and  _130
REMARK   52  A    between atoms: _132  and  _134
REMARK   53  A    between atoms: _134  and  _135
REMARK   54  A    between atoms: _134  and  _137
REMARK   55  A    between atoms: _137  and  _138
REMARK   56  A    between atoms: _148  and  _150
REMARK   57  A    between atoms: _150  and  _151
REMARK   58  A    between atoms: _154  and  _156
REMARK   59  A    between atoms: _156  and  _157
REMARK   60  A    between atoms: _156  and  _159
REMARK   61  A    between atoms: _159  and  _160
REMARK   62  A    between atoms: _166  and  _168
REMARK   63  A    between atoms: _168  and  _169
REMARK   64  A    between atoms: _168  and  _171
REMARK   65  A    between atoms: _173  and  _175
REMARK   66  A    between atoms: _175  and  _176
REMARK   67  A    between atoms: _175  and  _178
REMARK   68  A    between atoms: _178  and  _179
REMARK   69  A    between atoms: _181  and  _183
REMARK   70  A    between atoms: _183  and  _184
REMARK   71  A    between atoms: _186  and  _188
REMARK   72  A    between atoms: _188  and  _189
REMARK   73  A    between atoms: _191  and  _193
REMARK   74  A    between atoms: _193  and  _194
REMARK   75  A    between atoms: _193  and  _196
REMARK   76  A    between atoms: _196  and  _197
REMARK   77  A    between atoms: _200  and  _202
REMARK   78  A    between atoms: _202  and  _203
REMARK   79  A    between atoms: _202  and  _205
REMARK   80  A    between atoms: _205  and  _206
REMARK   81  A    between atoms: _206  and  _207
REMARK   82  A    between atoms: _212  and  _214
REMARK   83  A    between atoms: _214  and  _215
REMARK   84  A    between atoms: _214  and  _217
REMARK   85  A    between atoms: _217  and  _218
REMARK   86  A    between atoms: _218  and  _219
REMARK   87  A    between atoms: _219  and  _220
REMARK   88  A    between atoms: _229  and  _231
REMARK   89  A    between atoms: _231  and  _232
REMARK   90  A    between atoms: _231  and  _234
REMARK   91  A    between atoms: _234  and  _235
REMARK   92  A    between atoms: _238  and  _240
REMARK   93  A    between atoms: _240  and  _241
REMARK   94  A    between atoms: _240  and  _243
REMARK   95  A    between atoms: _243  and  _244
REMARK   96  A    between atoms: _244  and  _245
REMARK   97  A    between atoms: _245  and  _246
REMARK   98  A    between atoms: _255  and  _257
REMARK   99  A    between atoms: _257  and  _258
REMARK  100  A    between atoms: _260  and  _262
REMARK  101  A    between atoms: _262  and  _263
REMARK  102  A    between atoms: _262  and  _265
REMARK  103  A    between atoms: _265  and  _266
REMARK  104  A    between atoms: _271  and  _272
REMARK  105  A    between atoms: _274  and  _276
REMARK  106  A    between atoms: _276  and  _277
REMARK  107  A    between atoms: _276  and  _279
REMARK  108  A    between atoms: _279  and  _280
REMARK  109  A    between atoms: _283  and  _285
REMARK  110  A    between atoms: _285  and  _286
REMARK  111  A    between atoms: _285  and  _288
REMARK  112  A    between atoms: _288  and  _289
REMARK  113  A    between atoms: _289  and  _290
REMARK  114  A    between atoms: _290  and  _291
REMARK  115  A    between atoms: _300  and  _302
REMARK  116  A    between atoms: _302  and  _303
REMARK  117  A    between atoms: _302  and  _305
REMARK  118  A    between atoms: _305  and  _306
REMARK  119  A    between atoms: _309  and  _311
REMARK  120  A    between atoms: _311  and  _312
REMARK  121  A    between atoms: _311  and  _314
REMARK  122  A    between atoms: _314  and  _315
REMARK  123  A    between atoms: _320  and  _322
REMARK  124  A    between atoms: _322  and  _323
REMARK  125  A    between atoms: _322  and  _325
REMARK  126  A    between atoms: _325  and  _326
REMARK  127  A    between atoms: _329  and  _331
REMARK  128  A    between atoms: _331  and  _332
REMARK  129  A    between atoms: _331  and  _334
REMARK  130  A    between atoms: _334  and  _335
REMARK  131  A    between atoms: _338  and  _340
REMARK  132  A    between atoms: _340  and  _341
REMARK  133  A    between atoms: _340  and  _343
REMARK  134  A    between atoms: _343  and  _344
REMARK  135  A    between atoms: _344  and  _345
REMARK  136  A    between atoms: _348  and  _350
REMARK  137  A    between atoms: _350  and  _351
REMARK  138  A    between atoms: _350  and  _353
REMARK  139  A    between atoms: _353  and  _354
REMARK  140  A    between atoms: _354  and  _355
REMARK  141  A    between atoms: _360  and  _362
REMARK  142  A    between atoms: _362  and  _363
REMARK  143  A    between atoms: _365  and  _367
REMARK  144  A    between atoms: _367  and  _368
REMARK  145  A    between atoms: _367  and  _370
REMARK  146  A    between atoms: _370  and  _371
REMARK  147  A    between atoms: _381  and  _383
REMARK  148  A    between atoms: _383  and  _384
REMARK  149  A    between atoms: _387  and  _389
REMARK  150  A    between atoms: _389  and  _390
REMARK  151  A    between atoms: _393  and  _395
REMARK  152  A    between atoms: _395  and  _396
REMARK  153  A    between atoms: _398  and  _400
REMARK  154  A    between atoms: _400  and  _401
REMARK  155  A    between atoms: _403  and  _405
REMARK  156  A    between atoms: _405  and  _406
REMARK  157  A    between atoms: _408  and  _410
REMARK  158  A    between atoms: _410  and  _411
REMARK  159  A    between atoms: _410  and  _413
REMARK  160  A    between atoms: _413  and  _414
REMARK  161  A    between atoms: _419  and  _421
REMARK  162  A    between atoms: _421  and  _422
REMARK  163  A    between atoms: _421  and  _424
REMARK  164  A    between atoms: _424  and  _425
REMARK  165  A    between atoms: _427  and  _429
REMARK  166  A    between atoms: _429  and  _430
REMARK  167  A    between atoms: _429  and  _432
REMARK  168  A    between atoms: _432  and  _433
REMARK  169  A    between atoms: _436  and  _438
REMARK  170  A    between atoms: _438  and  _439
REMARK  171  A    between atoms: _438  and  _441
REMARK  172  A    between atoms: _441  and  _442
REMARK  173  A    between atoms: _442  and  _443
REMARK  174  A    between atoms: _443  and  _444
REMARK  175  A    between atoms: _453  and  _455
REMARK  176  A    between atoms: _455  and  _456
REMARK  177  A    between atoms: _455  and  _458
REMARK  178  A    between atoms: _458  and  _459
REMARK  179  A    between atoms: _465  and  _467
REMARK  180  A    between atoms: _467  and  _468
REMARK  181  A    between atoms: _467  and  _470
REMARK  182  A    between atoms: _470  and  _471
REMARK  183  A    between atoms: _471  and  _472
REMARK  184  A    between atoms: _472  and  _473
REMARK  185  A    between atoms: _473  and  _474
REMARK  186  A    between atoms: _478  and  _480
REMARK  187  A    between atoms: _480  and  _481
REMARK  188  A    between atoms: _480  and  _483
REMARK  189  A    between atoms: _483  and  _484
REMARK  190  A    between atoms: _484  and  _485
REMARK  191  A    between atoms: _490  and  _492
REMARK  192  A    between atoms: _492  and  _493
REMARK  193  A    between atoms: _492  and  _495
REMARK  194  A    between atoms: _495  and  _496
REMARK  195  A    between atoms: _499  and  _501
REMARK  196  A    between atoms: _501  and  _502
REMARK  197  A    between atoms: _501  and  _504
REMARK  198  A    between atoms: _504  and  _505
REMARK  199  A    between atoms: _508  and  _510
REMARK  200  A    between atoms: _510  and  _511
REMARK  201  A    between atoms: _514  and  _516
REMARK  202  A    between atoms: _516  and  _517
REMARK  203  A    between atoms: _516  and  _519
REMARK  204  A    between atoms: _519  and  _520
REMARK  205  A    between atoms: _523  and  _525
REMARK  206  A    between atoms: _525  and  _526
REMARK  207  A    between atoms: _525  and  _528
REMARK  208  A    between atoms: _531  and  _533
REMARK  209  A    between atoms: _533  and  _534
REMARK  210  A    between atoms: _536  and  _538
REMARK  211  A    between atoms: _538  and  _539
REMARK  212  A    between atoms: _538  and  _541
REMARK  213  A    between atoms: _541  and  _542
REMARK  214  A    between atoms: _544  and  _546
REMARK  215  A    between atoms: _546  and  _547
REMARK  216  A    between atoms: _546  and  _549
REMARK  217  A    between atoms: _549  and  _550
REMARK  218  A    between atoms: _556  and  _558
REMARK  219  A    between atoms: _558  and  _559
REMARK  220  A    between atoms: _558  and  _561
REMARK  221  A    between atoms: _561  and  _562
REMARK  222  A    between atoms: _565  and  _567
REMARK  223  A    between atoms: _567  and  _568
REMARK  224  A    between atoms: _570  and  _572
REMARK  225  A    between atoms: _572  and  _573
REMARK  226  A    between atoms: _575  and  _577
REMARK  227  A    between atoms: _577  and  _578
REMARK  228  A    between atoms: _577  and  _580
REMARK  229  A    between atoms: _580  and  _581
REMARK  230  A    between atoms: _586  and  _587
REMARK  231  A    between atoms: _589  and  _591
REMARK  232  A    between atoms: _591  and  _592
REMARK  233  A    between atoms: _594  and  _596
REMARK  234  A    between atoms: _596  and  _597
REMARK  235  A    between atoms: _596  and  _599
REMARK  236  A    between atoms: _599  and  _600
REMARK  237  A    between atoms: _606  and  _608
REMARK  238  A    between atoms: _608  and  _609
REMARK  239  A    between atoms: _608  and  _611
REMARK  240  A    between atoms: _611  and  _612
REMARK  241  A    between atoms: _615  and  _617
REMARK  242  A    between atoms: _617  and  _618
REMARK  243  A    between atoms: _617  and  _620
REMARK  244  A    between atoms: _620  and  _621
REMARK  245  A    between atoms: _621  and  _622
REMARK  246  A    between atoms: _627  and  _629
REMARK  247  A    between atoms: _629  and  _630
REMARK  248  A    between atoms: _633  and  _635
REMARK  249  A    between atoms: _635  and  _636
REMARK  250  A    between atoms: _638  and  _640
REMARK  251  A    between atoms: _640  and  _641
REMARK  252  A    between atoms: _640  and  _643
REMARK  253  A    between atoms: _643  and  _644
REMARK  254  A    between atoms: _644  and  _645
REMARK  255  A    between atoms: _648  and  _650
REMARK  256  A    between atoms: _650  and  _651
REMARK  257  A    between atoms: _650  and  _653
REMARK  258  A    between atoms: _653  and  _654
REMARK  259  A    between atoms: _657  and  _659
REMARK  260  A    between atoms: _659  and  _660
REMARK  261  A    between atoms: _659  and  _662
REMARK  262  A    between atoms: _662  and  _663
REMARK  263  A    between atoms: _663  and  _664
REMARK  264  A    between atoms: _664  and  _665
REMARK  265  A    between atoms: _674  and  _676
REMARK  266  A    between atoms: _676  and  _677
REMARK  267  A    between atoms: _676  and  _679
REMARK  268  A    between atoms: _679  and  _680
REMARK  269  A    between atoms: _685  and  _686
REMARK  270  A    between atoms: _688  and  _690
REMARK  271  A    between atoms: _690  and  _691
REMARK  272  A    between atoms: _693  and  _695
REMARK  273  A    between atoms: _695  and  _696
REMARK  274  A    between atoms: _695  and  _698
REMARK  275  A    between atoms: _698  and  _699
REMARK  276  A    between atoms: _705  and  _707
REMARK  277  A    between atoms: _707  and  _708
REMARK  278  A    between atoms: _707  and  _710
REMARK  279  A    between atoms: _710  and  _711
REMARK  280  A    between atoms: _714  and  _716
REMARK  281  A    between atoms: _716  and  _717
REMARK  282  A    between atoms: _716  and  _719
REMARK  283  A    between atoms: _719  and  _720
REMARK  284  A    between atoms: _720  and  _721
REMARK  285  A    between atoms: _726  and  _728
REMARK  286  A    between atoms: _728  and  _729
REMARK  287  A    between atoms: _728  and  _731
REMARK  288  A    between atoms: _731  and  _732
REMARK  289  A    between atoms: _732  and  _733
REMARK  290  A    between atoms: _733  and  _734
REMARK  291  A    between atoms: _734  and  _735
REMARK                            x       y       z     vdW  Elec       q    Type
REMARK                         _______ _______ _______ _____ _____    ______ ____
ROOT
ATOM      1  O   HOH     1      30.192 -19.882 202.149  0.00  0.00    +0.000 OA
ENDROOT
TORSDOF 0
