REMARK  Name = ../refined-set-2016/4g0q/4g0q_pocket.pdb
REMARK  124 active torsions:
REMARK  status: ('A' for Active; 'I' for Inactive)
REMARK    1  A    between atoms: _1  and  _3
REMARK    2  A    between atoms: _3  and  _4
REMARK    3  A    between atoms: _3  and  _6
REMARK    4  A    between atoms: _6  and  _7
REMARK    5  A    between atoms: _10  and  _12
REMARK    6  A    between atoms: _12  and  _13
REMARK    7  A    between atoms: _12  and  _15
REMARK    8  A    between atoms: _15  and  _16
REMARK    9  A    between atoms: _19  and  _21
REMARK   10  A    between atoms: _21  and  _22
REMARK   11  A    between atoms: _21  and  _24
REMARK   12  A    between atoms: _27  and  _29
REMARK   13  A    between atoms: _29  and  _30
REMARK   14  A    between atoms: _29  and  _32
REMARK   15  A    between atoms: _32  and  _33
REMARK   16  A    between atoms: _37  and  _38
REMARK   17  A    between atoms: _43  and  _45
REMARK   18  A    between atoms: _45  and  _46
REMARK   19  A    between atoms: _45  and  _48
REMARK   20  A    between atoms: _48  and  _49
REMARK   21  A    between atoms: _52  and  _54
REMARK   22  A    between atoms: _54  and  _55
REMARK   23  A    between atoms: _54  and  _57
REMARK   24  A    between atoms: _57  and  _58
REMARK   25  A    between atoms: _63  and  _65
REMARK   26  A    between atoms: _65  and  _66
REMARK   27  A    between atoms: _65  and  _68
REMARK   28  A    between atoms: _68  and  _69
REMARK   29  A    between atoms: _74  and  _76
REMARK   30  A    between atoms: _76  and  _77
REMARK   31  A    between atoms: _79  and  _81
REMARK   32  A    between atoms: _81  and  _82
REMARK   33  A    between atoms: _81  and  _84
REMARK   34  A    between atoms: _84  and  _85
REMARK   35  A    between atoms: _87  and  _89
REMARK   36  A    between atoms: _89  and  _90
REMARK   37  A    between atoms: _89  and  _92
REMARK   38  A    between atoms: _92  and  _93
REMARK   39  A    between atoms: _96  and  _98
REMARK   40  A    between atoms: _98  and  _99
REMARK   41  A    between atoms: _98  and  _101
REMARK   42  A    between atoms: _101  and  _102
REMARK   43  A    between atoms: _107  and  _108
REMARK   44  A    between atoms: _110  and  _112
REMARK   45  A    between atoms: _112  and  _113
REMARK   46  A    between atoms: _115  and  _117
REMARK   47  A    between atoms: _117  and  _118
REMARK   48  A    between atoms: _117  and  _120
REMARK   49  A    between atoms: _120  and  _121
REMARK   50  A    between atoms: _124  and  _126
REMARK   51  A    between atoms: _126  and  _127
REMARK   52  A    between atoms: _126  and  _129
REMARK   53  A    between atoms: _129  and  _130
REMARK   54  A    between atoms: _130  and  _131
REMARK   55  A    between atoms: _131  and  _132
REMARK   56  A    between atoms: _132  and  _133
REMARK   57  A    between atoms: _137  and  _139
REMARK   58  A    between atoms: _139  and  _140
REMARK   59  A    between atoms: _139  and  _142
REMARK   60  A    between atoms: _142  and  _143
REMARK   61  A    between atoms: _143  and  _144
REMARK   62  A    between atoms: _147  and  _149
REMARK   63  A    between atoms: _149  and  _150
REMARK   64  A    between atoms: _149  and  _152
REMARK   65  A    between atoms: _155  and  _157
REMARK   66  A    between atoms: _157  and  _158
REMARK   67  A    between atoms: _157  and  _160
REMARK   68  A    between atoms: _160  and  _161
REMARK   69  A    between atoms: _163  and  _165
REMARK   70  A    between atoms: _165  and  _166
REMARK   71  A    between atoms: _165  and  _168
REMARK   72  A    between atoms: _168  and  _169
REMARK   73  A    between atoms: _169  and  _170
REMARK   74  A    between atoms: _175  and  _177
REMARK   75  A    between atoms: _177  and  _178
REMARK   76  A    between atoms: _177  and  _180
REMARK   77  A    between atoms: _182  and  _184
REMARK   78  A    between atoms: _184  and  _185
REMARK   79  A    between atoms: _184  and  _187
REMARK   80  A    between atoms: _189  and  _191
REMARK   81  A    between atoms: _191  and  _192
REMARK   82  A    between atoms: _191  and  _194
REMARK   83  A    between atoms: _194  and  _195
REMARK   84  A    between atoms: _198  and  _200
REMARK   85  A    between atoms: _200  and  _201
REMARK   86  A    between atoms: _200  and  _203
REMARK   87  A    between atoms: _203  and  _204
REMARK   88  A    between atoms: _207  and  _209
REMARK   89  A    between atoms: _209  and  _210
REMARK   90  A    between atoms: _209  and  _212
REMARK   91  A    between atoms: _212  and  _213
REMARK   92  A    between atoms: _213  and  _214
REMARK   93  A    between atoms: _214  and  _215
REMARK   94  A    between atoms: _215  and  _216
REMARK   95  A    between atoms: _220  and  _222
REMARK   96  A    between atoms: _222  and  _223
REMARK   97  A    between atoms: _222  and  _225
REMARK   98  A    between atoms: _225  and  _226
REMARK   99  A    between atoms: _231  and  _233
REMARK  100  A    between atoms: _233  and  _234
REMARK  101  A    between atoms: _233  and  _236
REMARK  102  A    between atoms: _236  and  _237
REMARK  103  A    between atoms: _242  and  _243
REMARK  104  A    between atoms: _245  and  _247
REMARK  105  A    between atoms: _247  and  _248
REMARK  106  A    between atoms: _247  and  _250
REMARK  107  A    between atoms: _253  and  _255
REMARK  108  A    between atoms: _255  and  _256
REMARK  109  A    between atoms: _255  and  _258
REMARK  110  A    between atoms: _258  and  _259
REMARK  111  A    between atoms: _259  and  _260
REMARK  112  A    between atoms: _260  and  _261
REMARK  113  A    between atoms: _261  and  _262
REMARK  114  A    between atoms: _266  and  _268
REMARK  115  A    between atoms: _268  and  _269
REMARK  116  A    between atoms: _268  and  _271
REMARK  117  A    between atoms: _271  and  _272
REMARK  118  A    between atoms: _275  and  _277
REMARK  119  A    between atoms: _277  and  _278
REMARK  120  A    between atoms: _277  and  _280
REMARK  121  A    between atoms: _280  and  _281
REMARK  122  A    between atoms: _281  and  _282
REMARK  123  A    between atoms: _282  and  _283
REMARK  124  A    between atoms: _283  and  _284
REMARK                            x       y       z     vdW  Elec       q    Type
REMARK                         _______ _______ _______ _____ _____    ______ ____
ROOT
ATOM      1  C   LEU A   1      14.839  37.217  42.769  0.00  0.00    +0.238 C 
ATOM      2  O   LEU A   1      14.100  36.980  43.724  0.00  0.00    -0.274 OA
ATOM      3  N   LEU A   2      15.480  36.264  42.099  0.00  0.00    -0.298 N 
ATOM      4  H   LEU A   2      15.934  36.503  41.194  0.00  0.00    +0.150 HD
ENDROOT
BRANCH   1   5
ATOM      5  CA  LEU A   1      15.080  38.652  42.299  0.00  0.00    +0.145 C 
BRANCH   5   6
ATOM      6  N   LEU A   1      13.845  39.437  42.208  0.00  0.00    -0.238 NA
ATOM      7  H   LEU A   1      13.000  39.109  42.718  0.00  0.00    +0.142 HD
ENDBRANCH   5   6
BRANCH   5   8
ATOM      8  CB  LEU A   1      16.063  39.328  43.259  0.00  0.00    +0.026 C 
BRANCH   8   9
ATOM      9  CG  LEU A   1      17.388  38.598  43.543  0.00  0.00    +0.002 C 
ATOM     10  CD2 LEU A   1      18.084  39.187  44.772  0.00  0.00    +0.000 C 
ATOM     11  CD1 LEU A   1      18.308  38.664  42.318  0.00  0.00    +0.000 C 
ENDBRANCH   8   9
ENDBRANCH   5   8
ENDBRANCH   1   5
BRANCH   3  12
ATOM     12  CA  LEU A   2      15.567  34.893  42.593  0.00  0.00    +0.137 C 
BRANCH  12  13
ATOM     13  C   LEU A   2      17.008  34.620  42.996  0.00  0.00    +0.227 C 
ATOM     14  O   LEU A   2      17.920  34.758  42.177  0.00  0.00    -0.286 OA
ENDBRANCH  12  13
BRANCH  12  15
ATOM     15  CB  LEU A   2      15.141  33.893  41.513  0.00  0.00    +0.028 C 
BRANCH  15  16
ATOM     16  CG  LEU A   2      15.447  32.413  41.756  0.00  0.00    +0.002 C 
ATOM     17  CD2 LEU A   2      14.651  31.873  42.941  0.00  0.00    +0.000 C 
ATOM     18  CD1 LEU A   2      15.147  31.608  40.498  0.00  0.00    +0.000 C 
ENDBRANCH  15  16
ENDBRANCH  12  15
ENDBRANCH   3  12
TORSDOF 8
REMARK  Name = ../refined-set-2016/4g0q/4g0q_pocket.pdb
REMARK  124 active torsions:
REMARK  status: ('A' for Active; 'I' for Inactive)
REMARK    1  A    between atoms: _1  and  _3
REMARK    2  A    between atoms: _3  and  _4
REMARK    3  A    between atoms: _3  and  _6
REMARK    4  A    between atoms: _6  and  _7
REMARK    5  A    between atoms: _10  and  _12
REMARK    6  A    between atoms: _12  and  _13
REMARK    7  A    between atoms: _12  and  _15
REMARK    8  A    between atoms: _15  and  _16
REMARK    9  A    between atoms: _19  and  _21
REMARK   10  A    between atoms: _21  and  _22
REMARK   11  A    between atoms: _21  and  _24
REMARK   12  A    between atoms: _27  and  _29
REMARK   13  A    between atoms: _29  and  _30
REMARK   14  A    between atoms: _29  and  _32
REMARK   15  A    between atoms: _32  and  _33
REMARK   16  A    between atoms: _37  and  _38
REMARK   17  A    between atoms: _43  and  _45
REMARK   18  A    between atoms: _45  and  _46
REMARK   19  A    between atoms: _45  and  _48
REMARK   20  A    between atoms: _48  and  _49
REMARK   21  A    between atoms: _52  and  _54
REMARK   22  A    between atoms: _54  and  _55
REMARK   23  A    between atoms: _54  and  _57
REMARK   24  A    between atoms: _57  and  _58
REMARK   25  A    between atoms: _63  and  _65
REMARK   26  A    between atoms: _65  and  _66
REMARK   27  A    between atoms: _65  and  _68
REMARK   28  A    between atoms: _68  and  _69
REMARK   29  A    between atoms: _74  and  _76
REMARK   30  A    between atoms: _76  and  _77
REMARK   31  A    between atoms: _79  and  _81
REMARK   32  A    between atoms: _81  and  _82
REMARK   33  A    between atoms: _81  and  _84
REMARK   34  A    between atoms: _84  and  _85
REMARK   35  A    between atoms: _87  and  _89
REMARK   36  A    between atoms: _89  and  _90
REMARK   37  A    between atoms: _89  and  _92
REMARK   38  A    between atoms: _92  and  _93
REMARK   39  A    between atoms: _96  and  _98
REMARK   40  A    between atoms: _98  and  _99
REMARK   41  A    between atoms: _98  and  _101
REMARK   42  A    between atoms: _101  and  _102
REMARK   43  A    between atoms: _107  and  _108
REMARK   44  A    between atoms: _110  and  _112
REMARK   45  A    between atoms: _112  and  _113
REMARK   46  A    between atoms: _115  and  _117
REMARK   47  A    between atoms: _117  and  _118
REMARK   48  A    between atoms: _117  and  _120
REMARK   49  A    between atoms: _120  and  _121
REMARK   50  A    between atoms: _124  and  _126
REMARK   51  A    between atoms: _126  and  _127
REMARK   52  A    between atoms: _126  and  _129
REMARK   53  A    between atoms: _129  and  _130
REMARK   54  A    between atoms: _130  and  _131
REMARK   55  A    between atoms: _131  and  _132
REMARK   56  A    between atoms: _132  and  _133
REMARK   57  A    between atoms: _137  and  _139
REMARK   58  A    between atoms: _139  and  _140
REMARK   59  A    between atoms: _139  and  _142
REMARK   60  A    between atoms: _142  and  _143
REMARK   61  A    between atoms: _143  and  _144
REMARK   62  A    between atoms: _147  and  _149
REMARK   63  A    between atoms: _149  and  _150
REMARK   64  A    between atoms: _149  and  _152
REMARK   65  A    between atoms: _155  and  _157
REMARK   66  A    between atoms: _157  and  _158
REMARK   67  A    between atoms: _157  and  _160
REMARK   68  A    between atoms: _160  and  _161
REMARK   69  A    between atoms: _163  and  _165
REMARK   70  A    between atoms: _165  and  _166
REMARK   71  A    between atoms: _165  and  _168
REMARK   72  A    between atoms: _168  and  _169
REMARK   73  A    between atoms: _169  and  _170
REMARK   74  A    between atoms: _175  and  _177
REMARK   75  A    between atoms: _177  and  _178
REMARK   76  A    between atoms: _177  and  _180
REMARK   77  A    between atoms: _182  and  _184
REMARK   78  A    between atoms: _184  and  _185
REMARK   79  A    between atoms: _184  and  _187
REMARK   80  A    between atoms: _189  and  _191
REMARK   81  A    between atoms: _191  and  _192
REMARK   82  A    between atoms: _191  and  _194
REMARK   83  A    between atoms: _194  and  _195
REMARK   84  A    between atoms: _198  and  _200
REMARK   85  A    between atoms: _200  and  _201
REMARK   86  A    between atoms: _200  and  _203
REMARK   87  A    between atoms: _203  and  _204
REMARK   88  A    between atoms: _207  and  _209
REMARK   89  A    between atoms: _209  and  _210
REMARK   90  A    between atoms: _209  and  _212
REMARK   91  A    between atoms: _212  and  _213
REMARK   92  A    between atoms: _213  and  _214
REMARK   93  A    between atoms: _214  and  _215
REMARK   94  A    between atoms: _215  and  _216
REMARK   95  A    between atoms: _220  and  _222
REMARK   96  A    between atoms: _222  and  _223
REMARK   97  A    between atoms: _222  and  _225
REMARK   98  A    between atoms: _225  and  _226
REMARK   99  A    between atoms: _231  and  _233
REMARK  100  A    between atoms: _233  and  _234
REMARK  101  A    between atoms: _233  and  _236
REMARK  102  A    between atoms: _236  and  _237
REMARK  103  A    between atoms: _242  and  _243
REMARK  104  A    between atoms: _245  and  _247
REMARK  105  A    between atoms: _247  and  _248
REMARK  106  A    between atoms: _247  and  _250
REMARK  107  A    between atoms: _253  and  _255
REMARK  108  A    between atoms: _255  and  _256
REMARK  109  A    between atoms: _255  and  _258
REMARK  110  A    between atoms: _258  and  _259
REMARK  111  A    between atoms: _259  and  _260
REMARK  112  A    between atoms: _260  and  _261
REMARK  113  A    between atoms: _261  and  _262
REMARK  114  A    between atoms: _266  and  _268
REMARK  115  A    between atoms: _268  and  _269
REMARK  116  A    between atoms: _268  and  _271
REMARK  117  A    between atoms: _271  and  _272
REMARK  118  A    between atoms: _275  and  _277
REMARK  119  A    between atoms: _277  and  _278
REMARK  120  A    between atoms: _277  and  _280
REMARK  121  A    between atoms: _280  and  _281
REMARK  122  A    between atoms: _281  and  _282
REMARK  123  A    between atoms: _282  and  _283
REMARK  124  A    between atoms: _283  and  _284
REMARK                            x       y       z     vdW  Elec       q    Type
REMARK                         _______ _______ _______ _____ _____    ______ ____
ROOT
ATOM      1  CA  VAL A   1      19.672  30.279  43.796  0.00  0.00    +0.133 C 
ENDROOT
BRANCH   1   2
ATOM      2  CB  VAL A   1      19.656  29.826  42.313  0.00  0.00    +0.023 C 
ATOM      3  CG2 VAL A   1      19.556  28.295  42.220  0.00  0.00    +0.002 C 
ATOM      4  CG1 VAL A   1      18.495  30.478  41.566  0.00  0.00    +0.002 C 
ENDBRANCH   1   2
BRANCH   1   5
ATOM      5  N   VAL A   1      19.570  31.731  43.935  0.00  0.00    -0.239 NA
ATOM      6  H   VAL A   1      20.285  32.344  43.494  0.00  0.00    +0.142 HD
ENDBRANCH   1   5
BRANCH   1   7
ATOM      7  C   VAL A   1      20.954  29.776  44.425  0.00  0.00    +0.224 C 
ATOM      8  O   VAL A   1      22.033  30.310  44.159  0.00  0.00    -0.287 OA
ENDBRANCH   1   7
TORSDOF 3
REMARK  Name = ../refined-set-2016/4g0q/4g0q_pocket.pdb
REMARK  124 active torsions:
REMARK  status: ('A' for Active; 'I' for Inactive)
REMARK    1  A    between atoms: _1  and  _3
REMARK    2  A    between atoms: _3  and  _4
REMARK    3  A    between atoms: _3  and  _6
REMARK    4  A    between atoms: _6  and  _7
REMARK    5  A    between atoms: _10  and  _12
REMARK    6  A    between atoms: _12  and  _13
REMARK    7  A    between atoms: _12  and  _15
REMARK    8  A    between atoms: _15  and  _16
REMARK    9  A    between atoms: _19  and  _21
REMARK   10  A    between atoms: _21  and  _22
REMARK   11  A    between atoms: _21  and  _24
REMARK   12  A    between atoms: _27  and  _29
REMARK   13  A    between atoms: _29  and  _30
REMARK   14  A    between atoms: _29  and  _32
REMARK   15  A    between atoms: _32  and  _33
REMARK   16  A    between atoms: _37  and  _38
REMARK   17  A    between atoms: _43  and  _45
REMARK   18  A    between atoms: _45  and  _46
REMARK   19  A    between atoms: _45  and  _48
REMARK   20  A    between atoms: _48  and  _49
REMARK   21  A    between atoms: _52  and  _54
REMARK   22  A    between atoms: _54  and  _55
REMARK   23  A    between atoms: _54  and  _57
REMARK   24  A    between atoms: _57  and  _58
REMARK   25  A    between atoms: _63  and  _65
REMARK   26  A    between atoms: _65  and  _66
REMARK   27  A    between atoms: _65  and  _68
REMARK   28  A    between atoms: _68  and  _69
REMARK   29  A    between atoms: _74  and  _76
REMARK   30  A    between atoms: _76  and  _77
REMARK   31  A    between atoms: _79  and  _81
REMARK   32  A    between atoms: _81  and  _82
REMARK   33  A    between atoms: _81  and  _84
REMARK   34  A    between atoms: _84  and  _85
REMARK   35  A    between atoms: _87  and  _89
REMARK   36  A    between atoms: _89  and  _90
REMARK   37  A    between atoms: _89  and  _92
REMARK   38  A    between atoms: _92  and  _93
REMARK   39  A    between atoms: _96  and  _98
REMARK   40  A    between atoms: _98  and  _99
REMARK   41  A    between atoms: _98  and  _101
REMARK   42  A    between atoms: _101  and  _102
REMARK   43  A    between atoms: _107  and  _108
REMARK   44  A    between atoms: _110  and  _112
REMARK   45  A    between atoms: _112  and  _113
REMARK   46  A    between atoms: _115  and  _117
REMARK   47  A    between atoms: _117  and  _118
REMARK   48  A    between atoms: _117  and  _120
REMARK   49  A    between atoms: _120  and  _121
REMARK   50  A    between atoms: _124  and  _126
REMARK   51  A    between atoms: _126  and  _127
REMARK   52  A    between atoms: _126  and  _129
REMARK   53  A    between atoms: _129  and  _130
REMARK   54  A    between atoms: _130  and  _131
REMARK   55  A    between atoms: _131  and  _132
REMARK   56  A    between atoms: _132  and  _133
REMARK   57  A    between atoms: _137  and  _139
REMARK   58  A    between atoms: _139  and  _140
REMARK   59  A    between atoms: _139  and  _142
REMARK   60  A    between atoms: _142  and  _143
REMARK   61  A    between atoms: _143  and  _144
REMARK   62  A    between atoms: _147  and  _149
REMARK   63  A    between atoms: _149  and  _150
REMARK   64  A    between atoms: _149  and  _152
REMARK   65  A    between atoms: _155  and  _157
REMARK   66  A    between atoms: _157  and  _158
REMARK   67  A    between atoms: _157  and  _160
REMARK   68  A    between atoms: _160  and  _161
REMARK   69  A    between atoms: _163  and  _165
REMARK   70  A    between atoms: _165  and  _166
REMARK   71  A    between atoms: _165  and  _168
REMARK   72  A    between atoms: _168  and  _169
REMARK   73  A    between atoms: _169  and  _170
REMARK   74  A    between atoms: _175  and  _177
REMARK   75  A    between atoms: _177  and  _178
REMARK   76  A    between atoms: _177  and  _180
REMARK   77  A    between atoms: _182  and  _184
REMARK   78  A    between atoms: _184  and  _185
REMARK   79  A    between atoms: _184  and  _187
REMARK   80  A    between atoms: _189  and  _191
REMARK   81  A    between atoms: _191  and  _192
REMARK   82  A    between atoms: _191  and  _194
REMARK   83  A    between atoms: _194  and  _195
REMARK   84  A    between atoms: _198  and  _200
REMARK   85  A    between atoms: _200  and  _201
REMARK   86  A    between atoms: _200  and  _203
REMARK   87  A    between atoms: _203  and  _204
REMARK   88  A    between atoms: _207  and  _209
REMARK   89  A    between atoms: _209  and  _210
REMARK   90  A    between atoms: _209  and  _212
REMARK   91  A    between atoms: _212  and  _213
REMARK   92  A    between atoms: _213  and  _214
REMARK   93  A    between atoms: _214  and  _215
REMARK   94  A    between atoms: _215  and  _216
REMARK   95  A    between atoms: _220  and  _222
REMARK   96  A    between atoms: _222  and  _223
REMARK   97  A    between atoms: _222  and  _225
REMARK   98  A    between atoms: _225  and  _226
REMARK   99  A    between atoms: _231  and  _233
REMARK  100  A    between atoms: _233  and  _234
REMARK  101  A    between atoms: _233  and  _236
REMARK  102  A    between atoms: _236  and  _237
REMARK  103  A    between atoms: _242  and  _243
REMARK  104  A    between atoms: _245  and  _247
REMARK  105  A    between atoms: _247  and  _248
REMARK  106  A    between atoms: _247  and  _250
REMARK  107  A    between atoms: _253  and  _255
REMARK  108  A    between atoms: _255  and  _256
REMARK  109  A    between atoms: _255  and  _258
REMARK  110  A    between atoms: _258  and  _259
REMARK  111  A    between atoms: _259  and  _260
REMARK  112  A    between atoms: _260  and  _261
REMARK  113  A    between atoms: _261  and  _262
REMARK  114  A    between atoms: _266  and  _268
REMARK  115  A    between atoms: _268  and  _269
REMARK  116  A    between atoms: _268  and  _271
REMARK  117  A    between atoms: _271  and  _272
REMARK  118  A    between atoms: _275  and  _277
REMARK  119  A    between atoms: _277  and  _278
REMARK  120  A    between atoms: _277  and  _280
REMARK  121  A    between atoms: _280  and  _281
REMARK  122  A    between atoms: _281  and  _282
REMARK  123  A    between atoms: _282  and  _283
REMARK  124  A    between atoms: _283  and  _284
REMARK                            x       y       z     vdW  Elec       q    Type
REMARK                         _______ _______ _______ _____ _____    ______ ____
ROOT
ATOM      1  C   ASN A   5      26.160  21.146  37.789  0.00  0.00    +0.241 C 
ATOM      2  O   ASN A   5      24.990  21.033  37.433  0.00  0.00    -0.273 OA
ATOM      3  N   GLY A   6      27.181  20.960  36.957  0.00  0.00    -0.295 N 
ATOM      4  H   GLY A   6      28.152  21.132  37.288  0.00  0.00    +0.150 HD
ENDROOT
BRANCH   1   5
ATOM      5  CA  ASN A   5      26.487  21.500  39.235  0.00  0.00    +0.158 C 
BRANCH   5   8
ATOM      6  C   ASN A   4      28.495  20.829  40.406  0.00  0.00    +0.241 C 
ATOM      7  O   ASN A   4      27.952  19.812  40.854  0.00  0.00    -0.273 OA
ATOM      8  N   ASN A   5      27.899  21.648  39.548  0.00  0.00    -0.297 N 
ATOM      9  H   ASN A   5      28.449  22.405  39.094  0.00  0.00    +0.150 HD
BRANCH   6  10
ATOM     10  CA  ASN A   4      29.908  21.202  40.834  0.00  0.00    +0.158 C 
BRANCH  10  12
ATOM     11  C   ASP A   3      30.044  23.166  42.293  0.00  0.00    +0.241 C 
ATOM     12  N   ASN A   4      29.859  21.858  42.133  0.00  0.00    -0.297 N 
ATOM     13  H   ASN A   4      29.671  21.277  42.975  0.00  0.00    +0.150 HD
ATOM     14  O   ASP A   3      30.366  23.926  41.386  0.00  0.00    -0.273 OA
BRANCH  11  15
ATOM     15  CA  ASP A   3      29.839  23.687  43.706  0.00  0.00    +0.160 C 
BRANCH  15  17
ATOM     16  C   PRO A   2      27.441  23.248  43.671  0.00  0.00    +0.241 C 
ATOM     17  N   ASP A   3      28.609  23.154  44.301  0.00  0.00    -0.297 N 
ATOM     18  H   ASP A   3      28.651  22.694  45.233  0.00  0.00    +0.150 HD
ATOM     19  O   PRO A   2      27.320  23.799  42.568  0.00  0.00    -0.273 OA
BRANCH  16  23
ATOM     20  C   LEU A   1      25.014  24.755  44.334  0.00  0.00    +0.241 C 
ATOM     21  O   LEU A   1      25.874  25.298  45.026  0.00  0.00    -0.273 OA
ATOM     22  N   PRO A   2      25.015  23.440  44.067  0.00  0.00    -0.272 N 
ATOM     23  CA  PRO A   2      26.208  22.643  44.373  0.00  0.00    +0.152 C 
ATOM     24  CB  PRO A   2      25.874  21.271  43.778  0.00  0.00    +0.031 C 
ATOM     25  CG  PRO A   2      24.361  21.224  43.712  0.00  0.00    +0.024 C 
ATOM     26  CD  PRO A   2      23.937  22.644  43.451  0.00  0.00    +0.094 C 
BRANCH  20  27
ATOM     27  CA  LEU A   1      23.899  25.579  43.716  0.00  0.00    +0.145 C 
BRANCH  27  28
ATOM     28  N   LEU A   1      23.516  26.684  44.590  0.00  0.00    -0.238 NA
ATOM     29  H   LEU A   1      24.227  27.401  44.839  0.00  0.00    +0.142 HD
ENDBRANCH  27  28
BRANCH  27  30
ATOM     30  CB  LEU A   1      24.406  26.105  42.365  0.00  0.00    +0.026 C 
BRANCH  30  31
ATOM     31  CG  LEU A   1      23.539  26.995  41.482  0.00  0.00    +0.002 C 
ATOM     32  CD2 LEU A   1      22.257  26.276  41.118  0.00  0.00    +0.000 C 
ATOM     33  CD1 LEU A   1      24.302  27.395  40.221  0.00  0.00    +0.000 C 
ENDBRANCH  30  31
ENDBRANCH  27  30
ENDBRANCH  20  27
ENDBRANCH  16  23
ENDBRANCH  15  17
BRANCH  15  34
ATOM     34  CB  ASP A   3      31.049  23.355  44.586  0.00  0.00    +0.143 C 
BRANCH  34  35
ATOM     35  CG  ASP A   3      30.968  24.016  45.948  0.00  0.00    +0.367 C 
ATOM     36  OD2 ASP A   3      31.589  23.511  46.900  0.00  0.00    -0.246 OA
ATOM     37  OD1 ASP A   3      30.262  25.036  46.068  0.00  0.00    -0.246 OA
ENDBRANCH  34  35
ENDBRANCH  15  34
ENDBRANCH  11  15
ENDBRANCH  10  12
BRANCH  10  38
ATOM     38  CB  ASN A   4      30.778  19.947  40.914  0.00  0.00    +0.114 C 
BRANCH  38  39
ATOM     39  CG  ASN A   4      30.772  19.153  39.625  0.00  0.00    +0.222 C 
ATOM     40  OD1 ASN A   4      30.411  17.976  39.611  0.00  0.00    -0.275 OA
ATOM     41  ND2 ASN A   4      31.166  19.797  38.531  0.00  0.00    -0.329 N 
ATOM     42 HD21 ASN A   4      31.462  20.792  38.592  0.00  0.00    +0.145 HD
ATOM     43 HD22 ASN A   4      31.178  19.306  37.614  0.00  0.00    +0.145 HD
ENDBRANCH  38  39
ENDBRANCH  10  38
ENDBRANCH   6  10
ENDBRANCH   5   8
BRANCH   5  44
ATOM     44  CB  ASN A   5      25.723  22.761  39.667  0.00  0.00    +0.114 C 
BRANCH  44  45
ATOM     45  CG  ASN A   5      26.187  24.008  38.931  0.00  0.00    +0.222 C 
ATOM     46  ND2 ASN A   5      27.018  24.821  39.584  0.00  0.00    -0.329 N 
ATOM     47 HD21 ASN A   5      27.320  24.588  40.551  0.00  0.00    +0.145 HD
ATOM     48 HD22 ASN A   5      27.364  25.688  39.126  0.00  0.00    +0.145 HD
ATOM     49  OD1 ASN A   5      25.800  24.237  37.789  0.00  0.00    -0.275 OA
ENDBRANCH  44  45
ENDBRANCH   5  44
ENDBRANCH   1   5
BRANCH   3  50
ATOM     50  CA  GLY A   6      26.957  20.519  35.591  0.00  0.00    +0.176 C 
BRANCH  50  51
ATOM     51  C   GLY A   6      26.076  21.472  34.796  0.00  0.00    +0.243 C 
ATOM     52  O   GLY A   6      26.371  22.657  34.708  0.00  0.00    -0.273 OA
ATOM     53  N   SER A   7      24.990  20.955  34.224  0.00  0.00    -0.295 N 
ATOM     54  H   SER A   7      24.737  19.964  34.414  0.00  0.00    +0.150 HD
BRANCH  53  55
ATOM     55  CA  SER A   7      24.144  21.753  33.332  0.00  0.00    +0.178 C 
BRANCH  55  56
ATOM     56  C   SER A   7      23.144  22.633  34.089  0.00  0.00    +0.243 C 
ATOM     57  N   LEU A   8      23.106  22.486  35.412  0.00  0.00    -0.297 N 
ATOM     58  H   LEU A   8      23.778  21.842  35.875  0.00  0.00    +0.150 HD
ATOM     59  O   SER A   7      22.413  23.429  33.480  0.00  0.00    -0.273 OA
BRANCH  57  60
ATOM     60  CA  LEU A   8      22.130  23.219  36.227  0.00  0.00    +0.149 C 
BRANCH  60  61
ATOM     61  C   LEU A   8      22.191  24.741  36.049  0.00  0.00    +0.241 C 
ATOM     62  N   TYR A   9      23.380  25.324  36.190  0.00  0.00    -0.297 N 
ATOM     63  H   TYR A   9      24.213  24.747  36.422  0.00  0.00    +0.150 HD
ATOM     64  O   LEU A   8      21.163  25.385  35.803  0.00  0.00    -0.273 OA
BRANCH  62  65
ATOM     65  CA  TYR A   9      23.523  26.771  36.021  0.00  0.00    +0.153 C 
BRANCH  65  66
ATOM     66  C   TYR A   9      22.937  27.241  34.685  0.00  0.00    +0.241 C 
ATOM     67  O   TYR A   9      22.149  28.193  34.640  0.00  0.00    -0.273 OA
ATOM     68  N   GLY A  10      23.315  26.572  33.599  0.00  0.00    -0.295 N 
ATOM     69  H   GLY A  10      23.953  25.756  33.693  0.00  0.00    +0.150 HD
BRANCH  68  70
ATOM     70  CA  GLY A  10      22.845  26.970  32.280  0.00  0.00    +0.176 C 
BRANCH  70  71
ATOM     71  C   GLY A  10      21.344  26.801  32.112  0.00  0.00    +0.243 C 
ATOM     72  N   ASP A  11      20.817  25.691  32.615  0.00  0.00    -0.297 N 
ATOM     73  H   ASP A  11      21.439  24.998  33.077  0.00  0.00    +0.150 HD
ATOM     74  O   GLY A  10      20.671  27.657  31.525  0.00  0.00    -0.273 OA
BRANCH  72  75
ATOM     75  CA  ASP A  11      19.382  25.421  32.534  0.00  0.00    +0.148 C 
BRANCH  75  76
ATOM     76  C   ASP A  11      18.618  26.495  33.295  0.00  0.00    +0.227 C 
ATOM     77  O   ASP A  11      17.616  27.026  32.817  0.00  0.00    -0.286 OA
ENDBRANCH  75  76
BRANCH  75  78
ATOM     78  CB  ASP A  11      19.055  24.043  33.120  0.00  0.00    +0.142 C 
BRANCH  78  79
ATOM     79  CG  ASP A  11      19.504  22.904  32.228  0.00  0.00    +0.367 C 
ATOM     80  OD2 ASP A  11      19.512  21.750  32.714  0.00  0.00    -0.246 OA
ATOM     81  OD1 ASP A  11      19.844  23.159  31.054  0.00  0.00    -0.246 OA
ENDBRANCH  78  79
ENDBRANCH  75  78
ENDBRANCH  72  75
ENDBRANCH  70  71
ENDBRANCH  68  70
ENDBRANCH  65  66
BRANCH  65  82
ATOM     82  CB  TYR A   9      24.988  27.205  36.148  0.00  0.00    +0.055 C 
BRANCH  82  83
ATOM     83  CG  TYR A   9      25.222  28.677  35.873  0.00  0.00    -0.020 A 
ATOM     84  CD2 TYR A   9      25.215  29.605  36.907  0.00  0.00    -0.001 A 
ATOM     85  CE2 TYR A   9      25.414  30.943  36.662  0.00  0.00    +0.036 A 
ATOM     86  CZ  TYR A   9      25.624  31.375  35.368  0.00  0.00    +0.134 A 
ATOM     87  CE1 TYR A   9      25.629  30.474  34.325  0.00  0.00    +0.036 A 
ATOM     88  CD1 TYR A   9      25.425  29.141  34.577  0.00  0.00    -0.001 A 
BRANCH  86  89
ATOM     89  OH  TYR A   9      25.821  32.714  35.115  0.00  0.00    -0.506 OA
ATOM     90  HH  TYR A   9      25.028  33.225  35.414  0.00  0.00    +0.292 HD
ENDBRANCH  86  89
ENDBRANCH  82  83
ENDBRANCH  65  82
ENDBRANCH  62  65
ENDBRANCH  60  61
BRANCH  60  91
ATOM     91  CB  LEU A   8      22.278  22.849  37.707  0.00  0.00    +0.029 C 
BRANCH  91  92
ATOM     92  CG  LEU A   8      21.295  23.563  38.638  0.00  0.00    +0.002 C 
ATOM     93  CD2 LEU A   8      21.529  23.152  40.089  0.00  0.00    +0.000 C 
ATOM     94  CD1 LEU A   8      19.844  23.308  38.210  0.00  0.00    +0.000 C 
ENDBRANCH  91  92
ENDBRANCH  60  91
ENDBRANCH  57  60
ENDBRANCH  55  56
BRANCH  55  95
ATOM     95  CB  SER A   7      23.379  20.837  32.383  0.00  0.00    +0.166 C 
BRANCH  95  96
ATOM     96  OG  SER A   7      22.529  19.982  33.118  0.00  0.00    -0.380 OA
ATOM     97  H   SER A   7      23.071  19.431  33.737  0.00  0.00    +0.211 HD
ENDBRANCH  95  96
ENDBRANCH  55  95
ENDBRANCH  53  55
ENDBRANCH  50  51
ENDBRANCH   3  50
TORSDOF 38
REMARK  Name = ../refined-set-2016/4g0q/4g0q_pocket.pdb
REMARK  124 active torsions:
REMARK  status: ('A' for Active; 'I' for Inactive)
REMARK    1  A    between atoms: _1  and  _3
REMARK    2  A    between atoms: _3  and  _4
REMARK    3  A    between atoms: _3  and  _6
REMARK    4  A    between atoms: _6  and  _7
REMARK    5  A    between atoms: _10  and  _12
REMARK    6  A    between atoms: _12  and  _13
REMARK    7  A    between atoms: _12  and  _15
REMARK    8  A    between atoms: _15  and  _16
REMARK    9  A    between atoms: _19  and  _21
REMARK   10  A    between atoms: _21  and  _22
REMARK   11  A    between atoms: _21  and  _24
REMARK   12  A    between atoms: _27  and  _29
REMARK   13  A    between atoms: _29  and  _30
REMARK   14  A    between atoms: _29  and  _32
REMARK   15  A    between atoms: _32  and  _33
REMARK   16  A    between atoms: _37  and  _38
REMARK   17  A    between atoms: _43  and  _45
REMARK   18  A    between atoms: _45  and  _46
REMARK   19  A    between atoms: _45  and  _48
REMARK   20  A    between atoms: _48  and  _49
REMARK   21  A    between atoms: _52  and  _54
REMARK   22  A    between atoms: _54  and  _55
REMARK   23  A    between atoms: _54  and  _57
REMARK   24  A    between atoms: _57  and  _58
REMARK   25  A    between atoms: _63  and  _65
REMARK   26  A    between atoms: _65  and  _66
REMARK   27  A    between atoms: _65  and  _68
REMARK   28  A    between atoms: _68  and  _69
REMARK   29  A    between atoms: _74  and  _76
REMARK   30  A    between atoms: _76  and  _77
REMARK   31  A    between atoms: _79  and  _81
REMARK   32  A    between atoms: _81  and  _82
REMARK   33  A    between atoms: _81  and  _84
REMARK   34  A    between atoms: _84  and  _85
REMARK   35  A    between atoms: _87  and  _89
REMARK   36  A    between atoms: _89  and  _90
REMARK   37  A    between atoms: _89  and  _92
REMARK   38  A    between atoms: _92  and  _93
REMARK   39  A    between atoms: _96  and  _98
REMARK   40  A    between atoms: _98  and  _99
REMARK   41  A    between atoms: _98  and  _101
REMARK   42  A    between atoms: _101  and  _102
REMARK   43  A    between atoms: _107  and  _108
REMARK   44  A    between atoms: _110  and  _112
REMARK   45  A    between atoms: _112  and  _113
REMARK   46  A    between atoms: _115  and  _117
REMARK   47  A    between atoms: _117  and  _118
REMARK   48  A    between atoms: _117  and  _120
REMARK   49  A    between atoms: _120  and  _121
REMARK   50  A    between atoms: _124  and  _126
REMARK   51  A    between atoms: _126  and  _127
REMARK   52  A    between atoms: _126  and  _129
REMARK   53  A    between atoms: _129  and  _130
REMARK   54  A    between atoms: _130  and  _131
REMARK   55  A    between atoms: _131  and  _132
REMARK   56  A    between atoms: _132  and  _133
REMARK   57  A    between atoms: _137  and  _139
REMARK   58  A    between atoms: _139  and  _140
REMARK   59  A    between atoms: _139  and  _142
REMARK   60  A    between atoms: _142  and  _143
REMARK   61  A    between atoms: _143  and  _144
REMARK   62  A    between atoms: _147  and  _149
REMARK   63  A    between atoms: _149  and  _150
REMARK   64  A    between atoms: _149  and  _152
REMARK   65  A    between atoms: _155  and  _157
REMARK   66  A    between atoms: _157  and  _158
REMARK   67  A    between atoms: _157  and  _160
REMARK   68  A    between atoms: _160  and  _161
REMARK   69  A    between atoms: _163  and  _165
REMARK   70  A    between atoms: _165  and  _166
REMARK   71  A    between atoms: _165  and  _168
REMARK   72  A    between atoms: _168  and  _169
REMARK   73  A    between atoms: _169  and  _170
REMARK   74  A    between atoms: _175  and  _177
REMARK   75  A    between atoms: _177  and  _178
REMARK   76  A    between atoms: _177  and  _180
REMARK   77  A    between atoms: _182  and  _184
REMARK   78  A    between atoms: _184  and  _185
REMARK   79  A    between atoms: _184  and  _187
REMARK   80  A    between atoms: _189  and  _191
REMARK   81  A    between atoms: _191  and  _192
REMARK   82  A    between atoms: _191  and  _194
REMARK   83  A    between atoms: _194  and  _195
REMARK   84  A    between atoms: _198  and  _200
REMARK   85  A    between atoms: _200  and  _201
REMARK   86  A    between atoms: _200  and  _203
REMARK   87  A    between atoms: _203  and  _204
REMARK   88  A    between atoms: _207  and  _209
REMARK   89  A    between atoms: _209  and  _210
REMARK   90  A    between atoms: _209  and  _212
REMARK   91  A    between atoms: _212  and  _213
REMARK   92  A    between atoms: _213  and  _214
REMARK   93  A    between atoms: _214  and  _215
REMARK   94  A    between atoms: _215  and  _216
REMARK   95  A    between atoms: _220  and  _222
REMARK   96  A    between atoms: _222  and  _223
REMARK   97  A    between atoms: _222  and  _225
REMARK   98  A    between atoms: _225  and  _226
REMARK   99  A    between atoms: _231  and  _233
REMARK  100  A    between atoms: _233  and  _234
REMARK  101  A    between atoms: _233  and  _236
REMARK  102  A    between atoms: _236  and  _237
REMARK  103  A    between atoms: _242  and  _243
REMARK  104  A    between atoms: _245  and  _247
REMARK  105  A    between atoms: _247  and  _248
REMARK  106  A    between atoms: _247  and  _250
REMARK  107  A    between atoms: _253  and  _255
REMARK  108  A    between atoms: _255  and  _256
REMARK  109  A    between atoms: _255  and  _258
REMARK  110  A    between atoms: _258  and  _259
REMARK  111  A    between atoms: _259  and  _260
REMARK  112  A    between atoms: _260  and  _261
REMARK  113  A    between atoms: _261  and  _262
REMARK  114  A    between atoms: _266  and  _268
REMARK  115  A    between atoms: _268  and  _269
REMARK  116  A    between atoms: _268  and  _271
REMARK  117  A    between atoms: _271  and  _272
REMARK  118  A    between atoms: _275  and  _277
REMARK  119  A    between atoms: _277  and  _278
REMARK  120  A    between atoms: _277  and  _280
REMARK  121  A    between atoms: _280  and  _281
REMARK  122  A    between atoms: _281  and  _282
REMARK  123  A    between atoms: _282  and  _283
REMARK  124  A    between atoms: _283  and  _284
REMARK                            x       y       z     vdW  Elec       q    Type
REMARK                         _______ _______ _______ _____ _____    ______ ____
ROOT
ATOM      1  CG  LYS A   1      21.954  31.514  34.065  0.00  0.00    -0.000 C 
ENDROOT
BRANCH   1   2
ATOM      2  CB  LYS A   1      21.047  31.188  32.890  0.00  0.00    +0.025 C 
BRANCH   2   3
ATOM      3  CA  LYS A   1      19.620  30.847  33.318  0.00  0.00    +0.133 C 
BRANCH   3   4
ATOM      4  N   LYS A   1      19.573  29.563  34.017  0.00  0.00    -0.239 NA
ATOM      5  H   LYS A   1      20.419  28.959  34.043  0.00  0.00    +0.142 HD
ENDBRANCH   3   4
BRANCH   3   6
ATOM      6  C   LYS A   1      18.677  30.921  32.124  0.00  0.00    +0.224 C 
ATOM      7  O   LYS A   1      18.028  31.941  31.909  0.00  0.00    -0.287 OA
ENDBRANCH   3   6
ENDBRANCH   2   3
ENDBRANCH   1   2
BRANCH   1   8
ATOM      8  CD  LYS A   1      21.396  32.658  34.919  0.00  0.00    -0.024 C 
BRANCH   8   9
ATOM      9  CE  LYS A   1      22.193  32.793  36.223  0.00  0.00    -0.086 C 
BRANCH   9  10
ATOM     10  NZ  LYS A   1      21.873  34.035  36.983  0.00  0.00    +0.380 N 
ATOM     11  HZ1 LYS A   1      22.444  34.065  37.852  0.00  0.00    -0.089 HD
ATOM     12  HZ2 LYS A   1      20.863  34.038  37.231  0.00  0.00    -0.089 HD
ATOM     13  HZ3 LYS A   1      22.090  34.865  36.395  0.00  0.00    -0.089 HD
ENDBRANCH   9  10
ENDBRANCH   8   9
ENDBRANCH   1   8
TORSDOF 7
REMARK  Name = ../refined-set-2016/4g0q/4g0q_pocket.pdb
REMARK  124 active torsions:
REMARK  status: ('A' for Active; 'I' for Inactive)
REMARK    1  A    between atoms: _1  and  _3
REMARK    2  A    between atoms: _3  and  _4
REMARK    3  A    between atoms: _3  and  _6
REMARK    4  A    between atoms: _6  and  _7
REMARK    5  A    between atoms: _10  and  _12
REMARK    6  A    between atoms: _12  and  _13
REMARK    7  A    between atoms: _12  and  _15
REMARK    8  A    between atoms: _15  and  _16
REMARK    9  A    between atoms: _19  and  _21
REMARK   10  A    between atoms: _21  and  _22
REMARK   11  A    between atoms: _21  and  _24
REMARK   12  A    between atoms: _27  and  _29
REMARK   13  A    between atoms: _29  and  _30
REMARK   14  A    between atoms: _29  and  _32
REMARK   15  A    between atoms: _32  and  _33
REMARK   16  A    between atoms: _37  and  _38
REMARK   17  A    between atoms: _43  and  _45
REMARK   18  A    between atoms: _45  and  _46
REMARK   19  A    between atoms: _45  and  _48
REMARK   20  A    between atoms: _48  and  _49
REMARK   21  A    between atoms: _52  and  _54
REMARK   22  A    between atoms: _54  and  _55
REMARK   23  A    between atoms: _54  and  _57
REMARK   24  A    between atoms: _57  and  _58
REMARK   25  A    between atoms: _63  and  _65
REMARK   26  A    between atoms: _65  and  _66
REMARK   27  A    between atoms: _65  and  _68
REMARK   28  A    between atoms: _68  and  _69
REMARK   29  A    between atoms: _74  and  _76
REMARK   30  A    between atoms: _76  and  _77
REMARK   31  A    between atoms: _79  and  _81
REMARK   32  A    between atoms: _81  and  _82
REMARK   33  A    between atoms: _81  and  _84
REMARK   34  A    between atoms: _84  and  _85
REMARK   35  A    between atoms: _87  and  _89
REMARK   36  A    between atoms: _89  and  _90
REMARK   37  A    between atoms: _89  and  _92
REMARK   38  A    between atoms: _92  and  _93
REMARK   39  A    between atoms: _96  and  _98
REMARK   40  A    between atoms: _98  and  _99
REMARK   41  A    between atoms: _98  and  _101
REMARK   42  A    between atoms: _101  and  _102
REMARK   43  A    between atoms: _107  and  _108
REMARK   44  A    between atoms: _110  and  _112
REMARK   45  A    between atoms: _112  and  _113
REMARK   46  A    between atoms: _115  and  _117
REMARK   47  A    between atoms: _117  and  _118
REMARK   48  A    between atoms: _117  and  _120
REMARK   49  A    between atoms: _120  and  _121
REMARK   50  A    between atoms: _124  and  _126
REMARK   51  A    between atoms: _126  and  _127
REMARK   52  A    between atoms: _126  and  _129
REMARK   53  A    between atoms: _129  and  _130
REMARK   54  A    between atoms: _130  and  _131
REMARK   55  A    between atoms: _131  and  _132
REMARK   56  A    between atoms: _132  and  _133
REMARK   57  A    between atoms: _137  and  _139
REMARK   58  A    between atoms: _139  and  _140
REMARK   59  A    between atoms: _139  and  _142
REMARK   60  A    between atoms: _142  and  _143
REMARK   61  A    between atoms: _143  and  _144
REMARK   62  A    between atoms: _147  and  _149
REMARK   63  A    between atoms: _149  and  _150
REMARK   64  A    between atoms: _149  and  _152
REMARK   65  A    between atoms: _155  and  _157
REMARK   66  A    between atoms: _157  and  _158
REMARK   67  A    between atoms: _157  and  _160
REMARK   68  A    between atoms: _160  and  _161
REMARK   69  A    between atoms: _163  and  _165
REMARK   70  A    between atoms: _165  and  _166
REMARK   71  A    between atoms: _165  and  _168
REMARK   72  A    between atoms: _168  and  _169
REMARK   73  A    between atoms: _169  and  _170
REMARK   74  A    between atoms: _175  and  _177
REMARK   75  A    between atoms: _177  and  _178
REMARK   76  A    between atoms: _177  and  _180
REMARK   77  A    between atoms: _182  and  _184
REMARK   78  A    between atoms: _184  and  _185
REMARK   79  A    between atoms: _184  and  _187
REMARK   80  A    between atoms: _189  and  _191
REMARK   81  A    between atoms: _191  and  _192
REMARK   82  A    between atoms: _191  and  _194
REMARK   83  A    between atoms: _194  and  _195
REMARK   84  A    between atoms: _198  and  _200
REMARK   85  A    between atoms: _200  and  _201
REMARK   86  A    between atoms: _200  and  _203
REMARK   87  A    between atoms: _203  and  _204
REMARK   88  A    between atoms: _207  and  _209
REMARK   89  A    between atoms: _209  and  _210
REMARK   90  A    between atoms: _209  and  _212
REMARK   91  A    between atoms: _212  and  _213
REMARK   92  A    between atoms: _213  and  _214
REMARK   93  A    between atoms: _214  and  _215
REMARK   94  A    between atoms: _215  and  _216
REMARK   95  A    between atoms: _220  and  _222
REMARK   96  A    between atoms: _222  and  _223
REMARK   97  A    between atoms: _222  and  _225
REMARK   98  A    between atoms: _225  and  _226
REMARK   99  A    between atoms: _231  and  _233
REMARK  100  A    between atoms: _233  and  _234
REMARK  101  A    between atoms: _233  and  _236
REMARK  102  A    between atoms: _236  and  _237
REMARK  103  A    between atoms: _242  and  _243
REMARK  104  A    between atoms: _245  and  _247
REMARK  105  A    between atoms: _247  and  _248
REMARK  106  A    between atoms: _247  and  _250
REMARK  107  A    between atoms: _253  and  _255
REMARK  108  A    between atoms: _255  and  _256
REMARK  109  A    between atoms: _255  and  _258
REMARK  110  A    between atoms: _258  and  _259
REMARK  111  A    between atoms: _259  and  _260
REMARK  112  A    between atoms: _260  and  _261
REMARK  113  A    between atoms: _261  and  _262
REMARK  114  A    between atoms: _266  and  _268
REMARK  115  A    between atoms: _268  and  _269
REMARK  116  A    between atoms: _268  and  _271
REMARK  117  A    between atoms: _271  and  _272
REMARK  118  A    between atoms: _275  and  _277
REMARK  119  A    between atoms: _277  and  _278
REMARK  120  A    between atoms: _277  and  _280
REMARK  121  A    between atoms: _280  and  _281
REMARK  122  A    between atoms: _281  and  _282
REMARK  123  A    between atoms: _282  and  _283
REMARK  124  A    between atoms: _283  and  _284
REMARK                            x       y       z     vdW  Elec       q    Type
REMARK                         _______ _______ _______ _____ _____    ______ ____
ROOT
ATOM      1  CA  GLU A   1      15.930  34.677  31.134  0.00  0.00    +0.134 C 
ENDROOT
BRANCH   1   2
ATOM      2  N   GLU A   1      15.797  33.634  32.141  0.00  0.00    -0.239 NA
ATOM      3  H   GLU A   1      16.461  32.834  32.141  0.00  0.00    +0.142 HD
ENDBRANCH   1   2
BRANCH   1   4
ATOM      4  C   GLU A   1      14.815  34.634  30.091  0.00  0.00    +0.224 C 
ATOM      5  O   GLU A   1      14.226  35.667  29.783  0.00  0.00    -0.287 OA
ENDBRANCH   1   4
BRANCH   1   6
ATOM      6  CB  GLU A   1      17.303  34.616  30.457  0.00  0.00    +0.037 C 
BRANCH   6   7
ATOM      7  CG  GLU A   1      18.441  35.114  31.349  0.00  0.00    +0.116 C 
BRANCH   7   8
ATOM      8  CD  GLU A   1      19.828  34.689  30.869  0.00  0.00    +0.365 C 
ATOM      9  OE2 GLU A   1      20.782  34.786  31.672  0.00  0.00    -0.246 OA
ATOM     10  OE1 GLU A   1      19.966  34.262  29.699  0.00  0.00    -0.246 OA
ENDBRANCH   7   8
ENDBRANCH   6   7
ENDBRANCH   1   6
TORSDOF 5
REMARK  Name = ../refined-set-2016/4g0q/4g0q_pocket.pdb
REMARK  124 active torsions:
REMARK  status: ('A' for Active; 'I' for Inactive)
REMARK    1  A    between atoms: _1  and  _3
REMARK    2  A    between atoms: _3  and  _4
REMARK    3  A    between atoms: _3  and  _6
REMARK    4  A    between atoms: _6  and  _7
REMARK    5  A    between atoms: _10  and  _12
REMARK    6  A    between atoms: _12  and  _13
REMARK    7  A    between atoms: _12  and  _15
REMARK    8  A    between atoms: _15  and  _16
REMARK    9  A    between atoms: _19  and  _21
REMARK   10  A    between atoms: _21  and  _22
REMARK   11  A    between atoms: _21  and  _24
REMARK   12  A    between atoms: _27  and  _29
REMARK   13  A    between atoms: _29  and  _30
REMARK   14  A    between atoms: _29  and  _32
REMARK   15  A    between atoms: _32  and  _33
REMARK   16  A    between atoms: _37  and  _38
REMARK   17  A    between atoms: _43  and  _45
REMARK   18  A    between atoms: _45  and  _46
REMARK   19  A    between atoms: _45  and  _48
REMARK   20  A    between atoms: _48  and  _49
REMARK   21  A    between atoms: _52  and  _54
REMARK   22  A    between atoms: _54  and  _55
REMARK   23  A    between atoms: _54  and  _57
REMARK   24  A    between atoms: _57  and  _58
REMARK   25  A    between atoms: _63  and  _65
REMARK   26  A    between atoms: _65  and  _66
REMARK   27  A    between atoms: _65  and  _68
REMARK   28  A    between atoms: _68  and  _69
REMARK   29  A    between atoms: _74  and  _76
REMARK   30  A    between atoms: _76  and  _77
REMARK   31  A    between atoms: _79  and  _81
REMARK   32  A    between atoms: _81  and  _82
REMARK   33  A    between atoms: _81  and  _84
REMARK   34  A    between atoms: _84  and  _85
REMARK   35  A    between atoms: _87  and  _89
REMARK   36  A    between atoms: _89  and  _90
REMARK   37  A    between atoms: _89  and  _92
REMARK   38  A    between atoms: _92  and  _93
REMARK   39  A    between atoms: _96  and  _98
REMARK   40  A    between atoms: _98  and  _99
REMARK   41  A    between atoms: _98  and  _101
REMARK   42  A    between atoms: _101  and  _102
REMARK   43  A    between atoms: _107  and  _108
REMARK   44  A    between atoms: _110  and  _112
REMARK   45  A    between atoms: _112  and  _113
REMARK   46  A    between atoms: _115  and  _117
REMARK   47  A    between atoms: _117  and  _118
REMARK   48  A    between atoms: _117  and  _120
REMARK   49  A    between atoms: _120  and  _121
REMARK   50  A    between atoms: _124  and  _126
REMARK   51  A    between atoms: _126  and  _127
REMARK   52  A    between atoms: _126  and  _129
REMARK   53  A    between atoms: _129  and  _130
REMARK   54  A    between atoms: _130  and  _131
REMARK   55  A    between atoms: _131  and  _132
REMARK   56  A    between atoms: _132  and  _133
REMARK   57  A    between atoms: _137  and  _139
REMARK   58  A    between atoms: _139  and  _140
REMARK   59  A    between atoms: _139  and  _142
REMARK   60  A    between atoms: _142  and  _143
REMARK   61  A    between atoms: _143  and  _144
REMARK   62  A    between atoms: _147  and  _149
REMARK   63  A    between atoms: _149  and  _150
REMARK   64  A    between atoms: _149  and  _152
REMARK   65  A    between atoms: _155  and  _157
REMARK   66  A    between atoms: _157  and  _158
REMARK   67  A    between atoms: _157  and  _160
REMARK   68  A    between atoms: _160  and  _161
REMARK   69  A    between atoms: _163  and  _165
REMARK   70  A    between atoms: _165  and  _166
REMARK   71  A    between atoms: _165  and  _168
REMARK   72  A    between atoms: _168  and  _169
REMARK   73  A    between atoms: _169  and  _170
REMARK   74  A    between atoms: _175  and  _177
REMARK   75  A    between atoms: _177  and  _178
REMARK   76  A    between atoms: _177  and  _180
REMARK   77  A    between atoms: _182  and  _184
REMARK   78  A    between atoms: _184  and  _185
REMARK   79  A    between atoms: _184  and  _187
REMARK   80  A    between atoms: _189  and  _191
REMARK   81  A    between atoms: _191  and  _192
REMARK   82  A    between atoms: _191  and  _194
REMARK   83  A    between atoms: _194  and  _195
REMARK   84  A    between atoms: _198  and  _200
REMARK   85  A    between atoms: _200  and  _201
REMARK   86  A    between atoms: _200  and  _203
REMARK   87  A    between atoms: _203  and  _204
REMARK   88  A    between atoms: _207  and  _209
REMARK   89  A    between atoms: _209  and  _210
REMARK   90  A    between atoms: _209  and  _212
REMARK   91  A    between atoms: _212  and  _213
REMARK   92  A    between atoms: _213  and  _214
REMARK   93  A    between atoms: _214  and  _215
REMARK   94  A    between atoms: _215  and  _216
REMARK   95  A    between atoms: _220  and  _222
REMARK   96  A    between atoms: _222  and  _223
REMARK   97  A    between atoms: _222  and  _225
REMARK   98  A    between atoms: _225  and  _226
REMARK   99  A    between atoms: _231  and  _233
REMARK  100  A    between atoms: _233  and  _234
REMARK  101  A    between atoms: _233  and  _236
REMARK  102  A    between atoms: _236  and  _237
REMARK  103  A    between atoms: _242  and  _243
REMARK  104  A    between atoms: _245  and  _247
REMARK  105  A    between atoms: _247  and  _248
REMARK  106  A    between atoms: _247  and  _250
REMARK  107  A    between atoms: _253  and  _255
REMARK  108  A    between atoms: _255  and  _256
REMARK  109  A    between atoms: _255  and  _258
REMARK  110  A    between atoms: _258  and  _259
REMARK  111  A    between atoms: _259  and  _260
REMARK  112  A    between atoms: _260  and  _261
REMARK  113  A    between atoms: _261  and  _262
REMARK  114  A    between atoms: _266  and  _268
REMARK  115  A    between atoms: _268  and  _269
REMARK  116  A    between atoms: _268  and  _271
REMARK  117  A    between atoms: _271  and  _272
REMARK  118  A    between atoms: _275  and  _277
REMARK  119  A    between atoms: _277  and  _278
REMARK  120  A    between atoms: _277  and  _280
REMARK  121  A    between atoms: _280  and  _281
REMARK  122  A    between atoms: _281  and  _282
REMARK  123  A    between atoms: _282  and  _283
REMARK  124  A    between atoms: _283  and  _284
REMARK                            x       y       z     vdW  Elec       q    Type
REMARK                         _______ _______ _______ _____ _____    ______ ____
ROOT
ATOM      1  C   CYS A   5      25.984  29.832  45.089  0.00  0.00    +0.242 C 
ATOM      2  O   CYS A   5      25.131  28.977  45.362  0.00  0.00    -0.273 OA
ATOM      3  N   LEU A   6      27.285  29.556  45.039  0.00  0.00    -0.297 N 
ATOM      4  H   LEU A   6      27.964  30.311  44.817  0.00  0.00    +0.150 HD
ENDROOT
BRANCH   3   5
ATOM      5  CA  LEU A   6      27.767  28.200  45.294  0.00  0.00    +0.149 C 
BRANCH   5   6
ATOM      6  C   LEU A   6      27.778  27.826  46.771  0.00  0.00    +0.241 C 
ATOM      7  O   LEU A   6      27.987  28.668  47.642  0.00  0.00    -0.273 OA
ATOM      8  N   THR A   7      27.525  26.547  47.034  0.00  0.00    -0.295 N 
ATOM      9  H   THR A   7      27.325  25.910  46.237  0.00  0.00    +0.150 HD
BRANCH   8  10
ATOM     10  CA  THR A   7      27.514  25.993  48.378  0.00  0.00    +0.176 C 
BRANCH  10  11
ATOM     11  C   THR A   7      28.736  26.415  49.177  0.00  0.00    +0.243 C 
ATOM     12  O   THR A   7      28.618  26.777  50.341  0.00  0.00    -0.273 OA
ATOM     13  N   LYS A   8      29.911  26.398  48.556  0.00  0.00    -0.297 N 
ATOM     14  H   LYS A   8      29.972  26.161  47.545  0.00  0.00    +0.150 HD
BRANCH  13  15
ATOM     15  CA  LYS A   8      31.112  26.718  49.317  0.00  0.00    +0.149 C 
BRANCH  15  16
ATOM     16  C   LYS A   8      31.026  28.123  49.912  0.00  0.00    +0.241 C 
ATOM     17  O   LYS A   8      31.432  28.346  51.052  0.00  0.00    -0.273 OA
ATOM     18  N   HIS A   9      30.458  29.059  49.155  0.00  0.00    -0.298 N 
ATOM     19  H   HIS A   9      30.088  28.803  48.217  0.00  0.00    +0.150 HD
BRANCH  18  20
ATOM     20  CA  HIS A   9      30.345  30.435  49.617  0.00  0.00    +0.143 C 
BRANCH  20  21
ATOM     21  C   HIS A   9      29.240  30.598  50.657  0.00  0.00    +0.227 C 
ATOM     22  O   HIS A   9      29.314  31.462  51.534  0.00  0.00    -0.286 OA
ENDBRANCH  20  21
BRANCH  20  23
ATOM     23  CB  HIS A   9      30.120  31.386  48.432  0.00  0.00    +0.075 C 
BRANCH  23  24
ATOM     24  CG  HIS A   9      31.212  31.335  47.406  0.00  0.00    +0.082 A 
ATOM     25  CD2 HIS A   9      32.556  31.449  47.539  0.00  0.00    +0.115 A 
ATOM     26  NE2 HIS A   9      33.096  31.304  46.282  0.00  0.00    -0.221 NA
ATOM     27  CE1 HIS A   9      32.120  31.114  45.413  0.00  0.00    +0.199 A 
ATOM     28  ND1 HIS A   9      30.972  31.123  46.069  0.00  0.00    -0.227 NA
ENDBRANCH  23  24
ENDBRANCH  20  23
ENDBRANCH  18  20
ENDBRANCH  15  16
BRANCH  15  29
ATOM     29  CB  LYS A   8      32.383  26.533  48.477  0.00  0.00    +0.029 C 
BRANCH  29  30
ATOM     30  CG  LYS A   8      32.459  27.383  47.218  0.00  0.00    +0.000 C 
BRANCH  30  31
ATOM     31  CD  LYS A   8      33.751  27.067  46.477  0.00  0.00    -0.024 C 
BRANCH  31  32
ATOM     32  CE  LYS A   8      33.661  27.382  44.996  0.00  0.00    -0.086 C 
BRANCH  32  33
ATOM     33  NZ  LYS A   8      34.841  26.842  44.250  0.00  0.00    +0.380 N 
ATOM     34  HZ1 LYS A   8      35.712  27.268  44.626  0.00  0.00    -0.089 HD
ATOM     35  HZ2 LYS A   8      34.880  25.809  44.367  0.00  0.00    -0.089 HD
ATOM     36  HZ3 LYS A   8      34.748  27.075  43.241  0.00  0.00    -0.089 HD
ENDBRANCH  32  33
ENDBRANCH  31  32
ENDBRANCH  30  31
ENDBRANCH  29  30
ENDBRANCH  15  29
ENDBRANCH  13  15
ENDBRANCH  10  11
BRANCH  10  37
ATOM     37  CB  THR A   7      27.431  24.458  48.326  0.00  0.00    +0.137 C 
ATOM     38  CG2 THR A   7      27.471  23.848  49.728  0.00  0.00    +0.034 C 
BRANCH  37  39
ATOM     39  OG1 THR A   7      26.214  24.071  47.673  0.00  0.00    -0.382 OA
ATOM     40  HG1 THR A   7      26.204  24.435  46.753  0.00  0.00    +0.210 HD
ENDBRANCH  37  39
ENDBRANCH  10  37
ENDBRANCH   8  10
ENDBRANCH   5   6
BRANCH   5  41
ATOM     41  CB  LEU A   6      29.163  27.998  44.692  0.00  0.00    +0.029 C 
BRANCH  41  42
ATOM     42  CG  LEU A   6      29.229  28.299  43.193  0.00  0.00    +0.002 C 
ATOM     43  CD2 LEU A   6      30.660  28.168  42.671  0.00  0.00    +0.000 C 
ATOM     44  CD1 LEU A   6      28.269  27.396  42.421  0.00  0.00    +0.000 C 
ENDBRANCH  41  42
ENDBRANCH   5  41
ENDBRANCH   3   5
BRANCH   1  45
ATOM     45  CA  CYS A   5      25.575  31.267  44.787  0.00  0.00    +0.160 C 
BRANCH  45  47
ATOM     46  C   CYS A   4      24.636  32.140  42.694  0.00  0.00    +0.242 C 
ATOM     47  N   CYS A   5      24.581  31.289  43.718  0.00  0.00    -0.296 N 
ATOM     48  H   CYS A   5      23.794  30.610  43.757  0.00  0.00    +0.150 HD
ATOM     49  O   CYS A   4      25.543  32.951  42.531  0.00  0.00    -0.273 OA
BRANCH  46  50
ATOM     50  CA  CYS A   4      23.494  32.050  41.693  0.00  0.00    +0.160 C 
BRANCH  50  53
ATOM     51  C   GLN A   3      22.106  34.043  41.823  0.00  0.00    +0.241 C 
ATOM     52  O   GLN A   3      21.478  33.603  42.800  0.00  0.00    -0.273 OA
ATOM     53  N   CYS A   4      23.089  33.375  41.227  0.00  0.00    -0.296 N 
ATOM     54  H   CYS A   4      23.578  33.803  40.415  0.00  0.00    +0.150 HD
BRANCH  51  55
ATOM     55  CA  GLN A   3      21.763  35.396  41.242  0.00  0.00    +0.149 C 
BRANCH  55  57
ATOM     56  C   SER A   2      20.052  35.809  39.541  0.00  0.00    +0.243 C 
ATOM     57  N   GLN A   3      20.391  35.356  40.745  0.00  0.00    -0.297 N 
ATOM     58  H   GLN A   3      19.650  34.958  41.356  0.00  0.00    +0.150 HD
ATOM     59  O   SER A   2      20.850  36.323  38.751  0.00  0.00    -0.273 OA
BRANCH  56  60
ATOM     60  CA  SER A   2      18.588  35.643  39.171  0.00  0.00    +0.178 C 
BRANCH  60  63
ATOM     61  C   VAL A   1      16.960  37.274  38.439  0.00  0.00    +0.238 C 
ATOM     62  O   VAL A   1      16.212  36.969  39.373  0.00  0.00    -0.274 OA
ATOM     63  N   SER A   2      18.142  36.699  38.264  0.00  0.00    -0.295 N 
ATOM     64  H   SER A   2      18.754  37.000  37.479  0.00  0.00    +0.150 HD
BRANCH  61  65
ATOM     65  CA  VAL A   1      16.548  38.323  37.408  0.00  0.00    +0.145 C 
BRANCH  65  66
ATOM     66  CB  VAL A   1      16.798  39.746  37.959  0.00  0.00    +0.025 C 
ATOM     67  CG2 VAL A   1      18.166  39.840  38.655  0.00  0.00    +0.002 C 
ATOM     68  CG1 VAL A   1      16.673  40.779  36.839  0.00  0.00    +0.002 C 
ENDBRANCH  65  66
BRANCH  65  69
ATOM     69  N   VAL A   1      15.141  38.137  37.083  0.00  0.00    -0.238 NA
ATOM     70  H   VAL A   1      14.445  38.827  37.432  0.00  0.00    +0.142 HD
ENDBRANCH  65  69
ENDBRANCH  61  65
ENDBRANCH  60  63
BRANCH  60  71
ATOM     71  CB  SER A   2      18.341  34.251  38.577  0.00  0.00    +0.166 C 
BRANCH  71  72
ATOM     72  OG  SER A   2      19.072  34.058  37.366  0.00  0.00    -0.380 OA
ATOM     73  H   SER A   2      18.792  34.736  36.701  0.00  0.00    +0.211 HD
ENDBRANCH  71  72
ENDBRANCH  60  71
ENDBRANCH  56  60
ENDBRANCH  55  57
BRANCH  55  74
ATOM     74  CB  GLN A   3      21.903  36.461  42.335  0.00  0.00    +0.039 C 
BRANCH  74  75
ATOM     75  CG  GLN A   3      23.325  36.590  42.885  0.00  0.00    +0.087 C 
BRANCH  75  76
ATOM     76  CD  GLN A   3      24.318  36.884  41.795  0.00  0.00    +0.219 C 
ATOM     77  NE2 GLN A   3      25.298  36.006  41.626  0.00  0.00    -0.329 N 
ATOM     78 HE21 GLN A   3      25.361  35.172  42.244  0.00  0.00    +0.145 HD
ATOM     79 HE22 GLN A   3      26.003  36.152  40.875  0.00  0.00    +0.145 HD
ATOM     80  OE1 GLN A   3      24.197  37.883  41.095  0.00  0.00    -0.275 OA
ENDBRANCH  75  76
ENDBRANCH  74  75
ENDBRANCH  55  74
ENDBRANCH  51  55
ENDBRANCH  50  53
BRANCH  50  81
ATOM     81  CB  CYS A   4      23.896  31.159  40.519  0.00  0.00    +0.098 C 
ATOM     82  SG  CYS A   4      22.528  30.753  39.445  0.00  0.00    -0.080 S 
ENDBRANCH  50  81
ENDBRANCH  46  50
ENDBRANCH  45  47
BRANCH  45  83
ATOM     83  CB  CYS A   5      24.993  31.920  46.045  0.00  0.00    +0.098 C 
ATOM     84  SG  CYS A   5      24.357  33.619  45.819  0.00  0.00    -0.080 S 
ENDBRANCH  45  83
ENDBRANCH   1  45
TORSDOF 37
REMARK  Name = ../refined-set-2016/4g0q/4g0q_pocket.pdb
REMARK  124 active torsions:
REMARK  status: ('A' for Active; 'I' for Inactive)
REMARK    1  A    between atoms: _1  and  _3
REMARK    2  A    between atoms: _3  and  _4
REMARK    3  A    between atoms: _3  and  _6
REMARK    4  A    between atoms: _6  and  _7
REMARK    5  A    between atoms: _10  and  _12
REMARK    6  A    between atoms: _12  and  _13
REMARK    7  A    between atoms: _12  and  _15
REMARK    8  A    between atoms: _15  and  _16
REMARK    9  A    between atoms: _19  and  _21
REMARK   10  A    between atoms: _21  and  _22
REMARK   11  A    between atoms: _21  and  _24
REMARK   12  A    between atoms: _27  and  _29
REMARK   13  A    between atoms: _29  and  _30
REMARK   14  A    between atoms: _29  and  _32
REMARK   15  A    between atoms: _32  and  _33
REMARK   16  A    between atoms: _37  and  _38
REMARK   17  A    between atoms: _43  and  _45
REMARK   18  A    between atoms: _45  and  _46
REMARK   19  A    between atoms: _45  and  _48
REMARK   20  A    between atoms: _48  and  _49
REMARK   21  A    between atoms: _52  and  _54
REMARK   22  A    between atoms: _54  and  _55
REMARK   23  A    between atoms: _54  and  _57
REMARK   24  A    between atoms: _57  and  _58
REMARK   25  A    between atoms: _63  and  _65
REMARK   26  A    between atoms: _65  and  _66
REMARK   27  A    between atoms: _65  and  _68
REMARK   28  A    between atoms: _68  and  _69
REMARK   29  A    between atoms: _74  and  _76
REMARK   30  A    between atoms: _76  and  _77
REMARK   31  A    between atoms: _79  and  _81
REMARK   32  A    between atoms: _81  and  _82
REMARK   33  A    between atoms: _81  and  _84
REMARK   34  A    between atoms: _84  and  _85
REMARK   35  A    between atoms: _87  and  _89
REMARK   36  A    between atoms: _89  and  _90
REMARK   37  A    between atoms: _89  and  _92
REMARK   38  A    between atoms: _92  and  _93
REMARK   39  A    between atoms: _96  and  _98
REMARK   40  A    between atoms: _98  and  _99
REMARK   41  A    between atoms: _98  and  _101
REMARK   42  A    between atoms: _101  and  _102
REMARK   43  A    between atoms: _107  and  _108
REMARK   44  A    between atoms: _110  and  _112
REMARK   45  A    between atoms: _112  and  _113
REMARK   46  A    between atoms: _115  and  _117
REMARK   47  A    between atoms: _117  and  _118
REMARK   48  A    between atoms: _117  and  _120
REMARK   49  A    between atoms: _120  and  _121
REMARK   50  A    between atoms: _124  and  _126
REMARK   51  A    between atoms: _126  and  _127
REMARK   52  A    between atoms: _126  and  _129
REMARK   53  A    between atoms: _129  and  _130
REMARK   54  A    between atoms: _130  and  _131
REMARK   55  A    between atoms: _131  and  _132
REMARK   56  A    between atoms: _132  and  _133
REMARK   57  A    between atoms: _137  and  _139
REMARK   58  A    between atoms: _139  and  _140
REMARK   59  A    between atoms: _139  and  _142
REMARK   60  A    between atoms: _142  and  _143
REMARK   61  A    between atoms: _143  and  _144
REMARK   62  A    between atoms: _147  and  _149
REMARK   63  A    between atoms: _149  and  _150
REMARK   64  A    between atoms: _149  and  _152
REMARK   65  A    between atoms: _155  and  _157
REMARK   66  A    between atoms: _157  and  _158
REMARK   67  A    between atoms: _157  and  _160
REMARK   68  A    between atoms: _160  and  _161
REMARK   69  A    between atoms: _163  and  _165
REMARK   70  A    between atoms: _165  and  _166
REMARK   71  A    between atoms: _165  and  _168
REMARK   72  A    between atoms: _168  and  _169
REMARK   73  A    between atoms: _169  and  _170
REMARK   74  A    between atoms: _175  and  _177
REMARK   75  A    between atoms: _177  and  _178
REMARK   76  A    between atoms: _177  and  _180
REMARK   77  A    between atoms: _182  and  _184
REMARK   78  A    between atoms: _184  and  _185
REMARK   79  A    between atoms: _184  and  _187
REMARK   80  A    between atoms: _189  and  _191
REMARK   81  A    between atoms: _191  and  _192
REMARK   82  A    between atoms: _191  and  _194
REMARK   83  A    between atoms: _194  and  _195
REMARK   84  A    between atoms: _198  and  _200
REMARK   85  A    between atoms: _200  and  _201
REMARK   86  A    between atoms: _200  and  _203
REMARK   87  A    between atoms: _203  and  _204
REMARK   88  A    between atoms: _207  and  _209
REMARK   89  A    between atoms: _209  and  _210
REMARK   90  A    between atoms: _209  and  _212
REMARK   91  A    between atoms: _212  and  _213
REMARK   92  A    between atoms: _213  and  _214
REMARK   93  A    between atoms: _214  and  _215
REMARK   94  A    between atoms: _215  and  _216
REMARK   95  A    between atoms: _220  and  _222
REMARK   96  A    between atoms: _222  and  _223
REMARK   97  A    between atoms: _222  and  _225
REMARK   98  A    between atoms: _225  and  _226
REMARK   99  A    between atoms: _231  and  _233
REMARK  100  A    between atoms: _233  and  _234
REMARK  101  A    between atoms: _233  and  _236
REMARK  102  A    between atoms: _236  and  _237
REMARK  103  A    between atoms: _242  and  _243
REMARK  104  A    between atoms: _245  and  _247
REMARK  105  A    between atoms: _247  and  _248
REMARK  106  A    between atoms: _247  and  _250
REMARK  107  A    between atoms: _253  and  _255
REMARK  108  A    between atoms: _255  and  _256
REMARK  109  A    between atoms: _255  and  _258
REMARK  110  A    between atoms: _258  and  _259
REMARK  111  A    between atoms: _259  and  _260
REMARK  112  A    between atoms: _260  and  _261
REMARK  113  A    between atoms: _261  and  _262
REMARK  114  A    between atoms: _266  and  _268
REMARK  115  A    between atoms: _268  and  _269
REMARK  116  A    between atoms: _268  and  _271
REMARK  117  A    between atoms: _271  and  _272
REMARK  118  A    between atoms: _275  and  _277
REMARK  119  A    between atoms: _277  and  _278
REMARK  120  A    between atoms: _277  and  _280
REMARK  121  A    between atoms: _280  and  _281
REMARK  122  A    between atoms: _281  and  _282
REMARK  123  A    between atoms: _282  and  _283
REMARK  124  A    between atoms: _283  and  _284
REMARK                            x       y       z     vdW  Elec       q    Type
REMARK                         _______ _______ _______ _____ _____    ______ ____
ROOT
ATOM      1  CG  TYR A   1      30.661  35.474  48.682  0.00  0.00    -0.020 A 
ATOM      2  CD2 TYR A   1      29.364  35.262  49.152  0.00  0.00    -0.001 A 
ATOM      3  CE2 TYR A   1      28.409  34.641  48.356  0.00  0.00    +0.036 A 
ATOM      4  CZ  TYR A   1      28.749  34.230  47.083  0.00  0.00    +0.134 A 
ATOM      5  CE1 TYR A   1      30.026  34.428  46.598  0.00  0.00    +0.036 A 
ATOM      6  CD1 TYR A   1      30.969  35.054  47.390  0.00  0.00    -0.001 A 
ENDROOT
BRANCH   4   7
ATOM      7  OH  TYR A   1      27.817  33.615  46.281  0.00  0.00    -0.506 OA
ATOM      8  HH  TYR A   1      28.230  33.390  45.410  0.00  0.00    +0.292 HD
ENDBRANCH   4   7
BRANCH   1   9
ATOM      9  CB  TYR A   1      31.701  36.167  49.543  0.00  0.00    +0.051 C 
BRANCH   9  10
ATOM     10  CA  TYR A   1      31.907  37.635  49.155  0.00  0.00    +0.137 C 
BRANCH  10  11
ATOM     11  N   TYR A   1      32.751  38.331  50.113  0.00  0.00    -0.239 NA
ATOM     12  H   TYR A   1      33.096  37.831  50.957  0.00  0.00    +0.142 HD
ENDBRANCH  10  11
BRANCH  10  13
ATOM     13  C   TYR A   1      30.562  38.350  49.057  0.00  0.00    +0.224 C 
ATOM     14  O   TYR A   1      30.096  38.666  47.965  0.00  0.00    -0.287 OA
ENDBRANCH  10  13
ENDBRANCH   9  10
ENDBRANCH   1   9
TORSDOF 5
REMARK  Name = ../refined-set-2016/4g0q/4g0q_pocket.pdb
REMARK  124 active torsions:
REMARK  status: ('A' for Active; 'I' for Inactive)
REMARK    1  A    between atoms: _1  and  _3
REMARK    2  A    between atoms: _3  and  _4
REMARK    3  A    between atoms: _3  and  _6
REMARK    4  A    between atoms: _6  and  _7
REMARK    5  A    between atoms: _10  and  _12
REMARK    6  A    between atoms: _12  and  _13
REMARK    7  A    between atoms: _12  and  _15
REMARK    8  A    between atoms: _15  and  _16
REMARK    9  A    between atoms: _19  and  _21
REMARK   10  A    between atoms: _21  and  _22
REMARK   11  A    between atoms: _21  and  _24
REMARK   12  A    between atoms: _27  and  _29
REMARK   13  A    between atoms: _29  and  _30
REMARK   14  A    between atoms: _29  and  _32
REMARK   15  A    between atoms: _32  and  _33
REMARK   16  A    between atoms: _37  and  _38
REMARK   17  A    between atoms: _43  and  _45
REMARK   18  A    between atoms: _45  and  _46
REMARK   19  A    between atoms: _45  and  _48
REMARK   20  A    between atoms: _48  and  _49
REMARK   21  A    between atoms: _52  and  _54
REMARK   22  A    between atoms: _54  and  _55
REMARK   23  A    between atoms: _54  and  _57
REMARK   24  A    between atoms: _57  and  _58
REMARK   25  A    between atoms: _63  and  _65
REMARK   26  A    between atoms: _65  and  _66
REMARK   27  A    between atoms: _65  and  _68
REMARK   28  A    between atoms: _68  and  _69
REMARK   29  A    between atoms: _74  and  _76
REMARK   30  A    between atoms: _76  and  _77
REMARK   31  A    between atoms: _79  and  _81
REMARK   32  A    between atoms: _81  and  _82
REMARK   33  A    between atoms: _81  and  _84
REMARK   34  A    between atoms: _84  and  _85
REMARK   35  A    between atoms: _87  and  _89
REMARK   36  A    between atoms: _89  and  _90
REMARK   37  A    between atoms: _89  and  _92
REMARK   38  A    between atoms: _92  and  _93
REMARK   39  A    between atoms: _96  and  _98
REMARK   40  A    between atoms: _98  and  _99
REMARK   41  A    between atoms: _98  and  _101
REMARK   42  A    between atoms: _101  and  _102
REMARK   43  A    between atoms: _107  and  _108
REMARK   44  A    between atoms: _110  and  _112
REMARK   45  A    between atoms: _112  and  _113
REMARK   46  A    between atoms: _115  and  _117
REMARK   47  A    between atoms: _117  and  _118
REMARK   48  A    between atoms: _117  and  _120
REMARK   49  A    between atoms: _120  and  _121
REMARK   50  A    between atoms: _124  and  _126
REMARK   51  A    between atoms: _126  and  _127
REMARK   52  A    between atoms: _126  and  _129
REMARK   53  A    between atoms: _129  and  _130
REMARK   54  A    between atoms: _130  and  _131
REMARK   55  A    between atoms: _131  and  _132
REMARK   56  A    between atoms: _132  and  _133
REMARK   57  A    between atoms: _137  and  _139
REMARK   58  A    between atoms: _139  and  _140
REMARK   59  A    between atoms: _139  and  _142
REMARK   60  A    between atoms: _142  and  _143
REMARK   61  A    between atoms: _143  and  _144
REMARK   62  A    between atoms: _147  and  _149
REMARK   63  A    between atoms: _149  and  _150
REMARK   64  A    between atoms: _149  and  _152
REMARK   65  A    between atoms: _155  and  _157
REMARK   66  A    between atoms: _157  and  _158
REMARK   67  A    between atoms: _157  and  _160
REMARK   68  A    between atoms: _160  and  _161
REMARK   69  A    between atoms: _163  and  _165
REMARK   70  A    between atoms: _165  and  _166
REMARK   71  A    between atoms: _165  and  _168
REMARK   72  A    between atoms: _168  and  _169
REMARK   73  A    between atoms: _169  and  _170
REMARK   74  A    between atoms: _175  and  _177
REMARK   75  A    between atoms: _177  and  _178
REMARK   76  A    between atoms: _177  and  _180
REMARK   77  A    between atoms: _182  and  _184
REMARK   78  A    between atoms: _184  and  _185
REMARK   79  A    between atoms: _184  and  _187
REMARK   80  A    between atoms: _189  and  _191
REMARK   81  A    between atoms: _191  and  _192
REMARK   82  A    between atoms: _191  and  _194
REMARK   83  A    between atoms: _194  and  _195
REMARK   84  A    between atoms: _198  and  _200
REMARK   85  A    between atoms: _200  and  _201
REMARK   86  A    between atoms: _200  and  _203
REMARK   87  A    between atoms: _203  and  _204
REMARK   88  A    between atoms: _207  and  _209
REMARK   89  A    between atoms: _209  and  _210
REMARK   90  A    between atoms: _209  and  _212
REMARK   91  A    between atoms: _212  and  _213
REMARK   92  A    between atoms: _213  and  _214
REMARK   93  A    between atoms: _214  and  _215
REMARK   94  A    between atoms: _215  and  _216
REMARK   95  A    between atoms: _220  and  _222
REMARK   96  A    between atoms: _222  and  _223
REMARK   97  A    between atoms: _222  and  _225
REMARK   98  A    between atoms: _225  and  _226
REMARK   99  A    between atoms: _231  and  _233
REMARK  100  A    between atoms: _233  and  _234
REMARK  101  A    between atoms: _233  and  _236
REMARK  102  A    between atoms: _236  and  _237
REMARK  103  A    between atoms: _242  and  _243
REMARK  104  A    between atoms: _245  and  _247
REMARK  105  A    between atoms: _247  and  _248
REMARK  106  A    between atoms: _247  and  _250
REMARK  107  A    between atoms: _253  and  _255
REMARK  108  A    between atoms: _255  and  _256
REMARK  109  A    between atoms: _255  and  _258
REMARK  110  A    between atoms: _258  and  _259
REMARK  111  A    between atoms: _259  and  _260
REMARK  112  A    between atoms: _260  and  _261
REMARK  113  A    between atoms: _261  and  _262
REMARK  114  A    between atoms: _266  and  _268
REMARK  115  A    between atoms: _268  and  _269
REMARK  116  A    between atoms: _268  and  _271
REMARK  117  A    between atoms: _271  and  _272
REMARK  118  A    between atoms: _275  and  _277
REMARK  119  A    between atoms: _277  and  _278
REMARK  120  A    between atoms: _277  and  _280
REMARK  121  A    between atoms: _280  and  _281
REMARK  122  A    between atoms: _281  and  _282
REMARK  123  A    between atoms: _282  and  _283
REMARK  124  A    between atoms: _283  and  _284
REMARK                            x       y       z     vdW  Elec       q    Type
REMARK                         _______ _______ _______ _____ _____    ______ ____
ROOT
ATOM      1  CA  VAL A   1      27.401  39.563  45.204  0.00  0.00    +0.133 C 
ENDROOT
BRANCH   1   2
ATOM      2  CB  VAL A   1      26.854  38.358  45.955  0.00  0.00    +0.023 C 
ATOM      3  CG2 VAL A   1      27.821  37.195  45.839  0.00  0.00    +0.002 C 
ATOM      4  CG1 VAL A   1      25.497  37.978  45.376  0.00  0.00    +0.002 C 
ENDBRANCH   1   2
BRANCH   1   5
ATOM      5  N   VAL A   1      28.677  40.019  45.745  0.00  0.00    -0.239 NA
ATOM      6  H   VAL A   1      29.026  39.650  46.653  0.00  0.00    +0.142 HD
ENDBRANCH   1   5
BRANCH   1   7
ATOM      7  C   VAL A   1      26.370  40.698  45.206  0.00  0.00    +0.224 C 
ATOM      8  O   VAL A   1      25.560  40.827  44.284  0.00  0.00    -0.287 OA
ENDBRANCH   1   7
TORSDOF 3
REMARK  Name = ../refined-set-2016/4g0q/4g0q_pocket.pdb
REMARK  124 active torsions:
REMARK  status: ('A' for Active; 'I' for Inactive)
REMARK    1  A    between atoms: _1  and  _3
REMARK    2  A    between atoms: _3  and  _4
REMARK    3  A    between atoms: _3  and  _6
REMARK    4  A    between atoms: _6  and  _7
REMARK    5  A    between atoms: _10  and  _12
REMARK    6  A    between atoms: _12  and  _13
REMARK    7  A    between atoms: _12  and  _15
REMARK    8  A    between atoms: _15  and  _16
REMARK    9  A    between atoms: _19  and  _21
REMARK   10  A    between atoms: _21  and  _22
REMARK   11  A    between atoms: _21  and  _24
REMARK   12  A    between atoms: _27  and  _29
REMARK   13  A    between atoms: _29  and  _30
REMARK   14  A    between atoms: _29  and  _32
REMARK   15  A    between atoms: _32  and  _33
REMARK   16  A    between atoms: _37  and  _38
REMARK   17  A    between atoms: _43  and  _45
REMARK   18  A    between atoms: _45  and  _46
REMARK   19  A    between atoms: _45  and  _48
REMARK   20  A    between atoms: _48  and  _49
REMARK   21  A    between atoms: _52  and  _54
REMARK   22  A    between atoms: _54  and  _55
REMARK   23  A    between atoms: _54  and  _57
REMARK   24  A    between atoms: _57  and  _58
REMARK   25  A    between atoms: _63  and  _65
REMARK   26  A    between atoms: _65  and  _66
REMARK   27  A    between atoms: _65  and  _68
REMARK   28  A    between atoms: _68  and  _69
REMARK   29  A    between atoms: _74  and  _76
REMARK   30  A    between atoms: _76  and  _77
REMARK   31  A    between atoms: _79  and  _81
REMARK   32  A    between atoms: _81  and  _82
REMARK   33  A    between atoms: _81  and  _84
REMARK   34  A    between atoms: _84  and  _85
REMARK   35  A    between atoms: _87  and  _89
REMARK   36  A    between atoms: _89  and  _90
REMARK   37  A    between atoms: _89  and  _92
REMARK   38  A    between atoms: _92  and  _93
REMARK   39  A    between atoms: _96  and  _98
REMARK   40  A    between atoms: _98  and  _99
REMARK   41  A    between atoms: _98  and  _101
REMARK   42  A    between atoms: _101  and  _102
REMARK   43  A    between atoms: _107  and  _108
REMARK   44  A    between atoms: _110  and  _112
REMARK   45  A    between atoms: _112  and  _113
REMARK   46  A    between atoms: _115  and  _117
REMARK   47  A    between atoms: _117  and  _118
REMARK   48  A    between atoms: _117  and  _120
REMARK   49  A    between atoms: _120  and  _121
REMARK   50  A    between atoms: _124  and  _126
REMARK   51  A    between atoms: _126  and  _127
REMARK   52  A    between atoms: _126  and  _129
REMARK   53  A    between atoms: _129  and  _130
REMARK   54  A    between atoms: _130  and  _131
REMARK   55  A    between atoms: _131  and  _132
REMARK   56  A    between atoms: _132  and  _133
REMARK   57  A    between atoms: _137  and  _139
REMARK   58  A    between atoms: _139  and  _140
REMARK   59  A    between atoms: _139  and  _142
REMARK   60  A    between atoms: _142  and  _143
REMARK   61  A    between atoms: _143  and  _144
REMARK   62  A    between atoms: _147  and  _149
REMARK   63  A    between atoms: _149  and  _150
REMARK   64  A    between atoms: _149  and  _152
REMARK   65  A    between atoms: _155  and  _157
REMARK   66  A    between atoms: _157  and  _158
REMARK   67  A    between atoms: _157  and  _160
REMARK   68  A    between atoms: _160  and  _161
REMARK   69  A    between atoms: _163  and  _165
REMARK   70  A    between atoms: _165  and  _166
REMARK   71  A    between atoms: _165  and  _168
REMARK   72  A    between atoms: _168  and  _169
REMARK   73  A    between atoms: _169  and  _170
REMARK   74  A    between atoms: _175  and  _177
REMARK   75  A    between atoms: _177  and  _178
REMARK   76  A    between atoms: _177  and  _180
REMARK   77  A    between atoms: _182  and  _184
REMARK   78  A    between atoms: _184  and  _185
REMARK   79  A    between atoms: _184  and  _187
REMARK   80  A    between atoms: _189  and  _191
REMARK   81  A    between atoms: _191  and  _192
REMARK   82  A    between atoms: _191  and  _194
REMARK   83  A    between atoms: _194  and  _195
REMARK   84  A    between atoms: _198  and  _200
REMARK   85  A    between atoms: _200  and  _201
REMARK   86  A    between atoms: _200  and  _203
REMARK   87  A    between atoms: _203  and  _204
REMARK   88  A    between atoms: _207  and  _209
REMARK   89  A    between atoms: _209  and  _210
REMARK   90  A    between atoms: _209  and  _212
REMARK   91  A    between atoms: _212  and  _213
REMARK   92  A    between atoms: _213  and  _214
REMARK   93  A    between atoms: _214  and  _215
REMARK   94  A    between atoms: _215  and  _216
REMARK   95  A    between atoms: _220  and  _222
REMARK   96  A    between atoms: _222  and  _223
REMARK   97  A    between atoms: _222  and  _225
REMARK   98  A    between atoms: _225  and  _226
REMARK   99  A    between atoms: _231  and  _233
REMARK  100  A    between atoms: _233  and  _234
REMARK  101  A    between atoms: _233  and  _236
REMARK  102  A    between atoms: _236  and  _237
REMARK  103  A    between atoms: _242  and  _243
REMARK  104  A    between atoms: _245  and  _247
REMARK  105  A    between atoms: _247  and  _248
REMARK  106  A    between atoms: _247  and  _250
REMARK  107  A    between atoms: _253  and  _255
REMARK  108  A    between atoms: _255  and  _256
REMARK  109  A    between atoms: _255  and  _258
REMARK  110  A    between atoms: _258  and  _259
REMARK  111  A    between atoms: _259  and  _260
REMARK  112  A    between atoms: _260  and  _261
REMARK  113  A    between atoms: _261  and  _262
REMARK  114  A    between atoms: _266  and  _268
REMARK  115  A    between atoms: _268  and  _269
REMARK  116  A    between atoms: _268  and  _271
REMARK  117  A    between atoms: _271  and  _272
REMARK  118  A    between atoms: _275  and  _277
REMARK  119  A    between atoms: _277  and  _278
REMARK  120  A    between atoms: _277  and  _280
REMARK  121  A    between atoms: _280  and  _281
REMARK  122  A    between atoms: _281  and  _282
REMARK  123  A    between atoms: _282  and  _283
REMARK  124  A    between atoms: _283  and  _284
REMARK                            x       y       z     vdW  Elec       q    Type
REMARK                         _______ _______ _______ _____ _____    ______ ____
ROOT
ATOM      1  CA  LYS A   1      26.314  42.018  40.963  0.00  0.00    +0.145 C 
ENDROOT
BRANCH   1   2
ATOM      2  C   LYS A   1      24.799  42.161  40.904  0.00  0.00    +0.238 C 
ATOM      3  N   ILE A   2      24.151  41.927  42.041  0.00  0.00    -0.298 N 
ATOM      4  H   ILE A   2      24.689  41.636  42.882  0.00  0.00    +0.150 HD
ATOM      5  O   LYS A   1      24.227  42.445  39.841  0.00  0.00    -0.274 OA
BRANCH   3   6
ATOM      6  CA  ILE A   2      22.701  42.070  42.135  0.00  0.00    +0.137 C 
BRANCH   6   7
ATOM      7  CB  ILE A   2      22.198  41.711  43.556  0.00  0.00    +0.026 C 
ATOM      8  CG2 ILE A   2      20.762  42.153  43.739  0.00  0.00    +0.002 C 
BRANCH   7   9
ATOM      9  CG1 ILE A   2      22.293  40.196  43.786  0.00  0.00    +0.002 C 
ATOM     10  CD1 ILE A   2      22.065  39.787  45.241  0.00  0.00    +0.000 C 
ENDBRANCH   7   9
ENDBRANCH   6   7
BRANCH   6  11
ATOM     11  C   ILE A   2      22.261  43.485  41.758  0.00  0.00    +0.227 C 
ATOM     12  O   ILE A   2      21.290  43.669  41.015  0.00  0.00    -0.286 OA
ENDBRANCH   6  11
ENDBRANCH   3   6
ENDBRANCH   1   2
BRANCH   1  13
ATOM     13  N   LYS A   1      26.865  42.696  42.131  0.00  0.00    -0.238 NA
ATOM     14  H   LYS A   1      27.335  42.134  42.869  0.00  0.00    +0.142 HD
ENDBRANCH   1  13
BRANCH   1  15
ATOM     15  CB  LYS A   1      26.688  40.528  40.969  0.00  0.00    +0.026 C 
BRANCH  15  16
ATOM     16  CG  LYS A   1      28.186  40.266  40.921  0.00  0.00    -0.000 C 
BRANCH  16  17
ATOM     17  CD  LYS A   1      28.507  38.787  40.737  0.00  0.00    -0.024 C 
BRANCH  17  18
ATOM     18  CE  LYS A   1      28.206  38.333  39.318  0.00  0.00    -0.086 C 
BRANCH  18  19
ATOM     19  NZ  LYS A   1      28.391  36.861  39.150  0.00  0.00    +0.380 N 
ATOM     20  HZ1 LYS A   1      27.751  36.356  39.796  0.00  0.00    -0.089 HD
ATOM     21  HZ2 LYS A   1      29.376  36.609  39.370  0.00  0.00    -0.089 HD
ATOM     22  HZ3 LYS A   1      28.175  36.596  38.168  0.00  0.00    -0.089 HD
ENDBRANCH  18  19
ENDBRANCH  17  18
ENDBRANCH  16  17
ENDBRANCH  15  16
ENDBRANCH   1  15
TORSDOF 11
REMARK  Name = ../refined-set-2016/4g0q/4g0q_pocket.pdb
REMARK  124 active torsions:
REMARK  status: ('A' for Active; 'I' for Inactive)
REMARK    1  A    between atoms: _1  and  _3
REMARK    2  A    between atoms: _3  and  _4
REMARK    3  A    between atoms: _3  and  _6
REMARK    4  A    between atoms: _6  and  _7
REMARK    5  A    between atoms: _10  and  _12
REMARK    6  A    between atoms: _12  and  _13
REMARK    7  A    between atoms: _12  and  _15
REMARK    8  A    between atoms: _15  and  _16
REMARK    9  A    between atoms: _19  and  _21
REMARK   10  A    between atoms: _21  and  _22
REMARK   11  A    between atoms: _21  and  _24
REMARK   12  A    between atoms: _27  and  _29
REMARK   13  A    between atoms: _29  and  _30
REMARK   14  A    between atoms: _29  and  _32
REMARK   15  A    between atoms: _32  and  _33
REMARK   16  A    between atoms: _37  and  _38
REMARK   17  A    between atoms: _43  and  _45
REMARK   18  A    between atoms: _45  and  _46
REMARK   19  A    between atoms: _45  and  _48
REMARK   20  A    between atoms: _48  and  _49
REMARK   21  A    between atoms: _52  and  _54
REMARK   22  A    between atoms: _54  and  _55
REMARK   23  A    between atoms: _54  and  _57
REMARK   24  A    between atoms: _57  and  _58
REMARK   25  A    between atoms: _63  and  _65
REMARK   26  A    between atoms: _65  and  _66
REMARK   27  A    between atoms: _65  and  _68
REMARK   28  A    between atoms: _68  and  _69
REMARK   29  A    between atoms: _74  and  _76
REMARK   30  A    between atoms: _76  and  _77
REMARK   31  A    between atoms: _79  and  _81
REMARK   32  A    between atoms: _81  and  _82
REMARK   33  A    between atoms: _81  and  _84
REMARK   34  A    between atoms: _84  and  _85
REMARK   35  A    between atoms: _87  and  _89
REMARK   36  A    between atoms: _89  and  _90
REMARK   37  A    between atoms: _89  and  _92
REMARK   38  A    between atoms: _92  and  _93
REMARK   39  A    between atoms: _96  and  _98
REMARK   40  A    between atoms: _98  and  _99
REMARK   41  A    between atoms: _98  and  _101
REMARK   42  A    between atoms: _101  and  _102
REMARK   43  A    between atoms: _107  and  _108
REMARK   44  A    between atoms: _110  and  _112
REMARK   45  A    between atoms: _112  and  _113
REMARK   46  A    between atoms: _115  and  _117
REMARK   47  A    between atoms: _117  and  _118
REMARK   48  A    between atoms: _117  and  _120
REMARK   49  A    between atoms: _120  and  _121
REMARK   50  A    between atoms: _124  and  _126
REMARK   51  A    between atoms: _126  and  _127
REMARK   52  A    between atoms: _126  and  _129
REMARK   53  A    between atoms: _129  and  _130
REMARK   54  A    between atoms: _130  and  _131
REMARK   55  A    between atoms: _131  and  _132
REMARK   56  A    between atoms: _132  and  _133
REMARK   57  A    between atoms: _137  and  _139
REMARK   58  A    between atoms: _139  and  _140
REMARK   59  A    between atoms: _139  and  _142
REMARK   60  A    between atoms: _142  and  _143
REMARK   61  A    between atoms: _143  and  _144
REMARK   62  A    between atoms: _147  and  _149
REMARK   63  A    between atoms: _149  and  _150
REMARK   64  A    between atoms: _149  and  _152
REMARK   65  A    between atoms: _155  and  _157
REMARK   66  A    between atoms: _157  and  _158
REMARK   67  A    between atoms: _157  and  _160
REMARK   68  A    between atoms: _160  and  _161
REMARK   69  A    between atoms: _163  and  _165
REMARK   70  A    between atoms: _165  and  _166
REMARK   71  A    between atoms: _165  and  _168
REMARK   72  A    between atoms: _168  and  _169
REMARK   73  A    between atoms: _169  and  _170
REMARK   74  A    between atoms: _175  and  _177
REMARK   75  A    between atoms: _177  and  _178
REMARK   76  A    between atoms: _177  and  _180
REMARK   77  A    between atoms: _182  and  _184
REMARK   78  A    between atoms: _184  and  _185
REMARK   79  A    between atoms: _184  and  _187
REMARK   80  A    between atoms: _189  and  _191
REMARK   81  A    between atoms: _191  and  _192
REMARK   82  A    between atoms: _191  and  _194
REMARK   83  A    between atoms: _194  and  _195
REMARK   84  A    between atoms: _198  and  _200
REMARK   85  A    between atoms: _200  and  _201
REMARK   86  A    between atoms: _200  and  _203
REMARK   87  A    between atoms: _203  and  _204
REMARK   88  A    between atoms: _207  and  _209
REMARK   89  A    between atoms: _209  and  _210
REMARK   90  A    between atoms: _209  and  _212
REMARK   91  A    between atoms: _212  and  _213
REMARK   92  A    between atoms: _213  and  _214
REMARK   93  A    between atoms: _214  and  _215
REMARK   94  A    between atoms: _215  and  _216
REMARK   95  A    between atoms: _220  and  _222
REMARK   96  A    between atoms: _222  and  _223
REMARK   97  A    between atoms: _222  and  _225
REMARK   98  A    between atoms: _225  and  _226
REMARK   99  A    between atoms: _231  and  _233
REMARK  100  A    between atoms: _233  and  _234
REMARK  101  A    between atoms: _233  and  _236
REMARK  102  A    between atoms: _236  and  _237
REMARK  103  A    between atoms: _242  and  _243
REMARK  104  A    between atoms: _245  and  _247
REMARK  105  A    between atoms: _247  and  _248
REMARK  106  A    between atoms: _247  and  _250
REMARK  107  A    between atoms: _253  and  _255
REMARK  108  A    between atoms: _255  and  _256
REMARK  109  A    between atoms: _255  and  _258
REMARK  110  A    between atoms: _258  and  _259
REMARK  111  A    between atoms: _259  and  _260
REMARK  112  A    between atoms: _260  and  _261
REMARK  113  A    between atoms: _261  and  _262
REMARK  114  A    between atoms: _266  and  _268
REMARK  115  A    between atoms: _268  and  _269
REMARK  116  A    between atoms: _268  and  _271
REMARK  117  A    between atoms: _271  and  _272
REMARK  118  A    between atoms: _275  and  _277
REMARK  119  A    between atoms: _277  and  _278
REMARK  120  A    between atoms: _277  and  _280
REMARK  121  A    between atoms: _280  and  _281
REMARK  122  A    between atoms: _281  and  _282
REMARK  123  A    between atoms: _282  and  _283
REMARK  124  A    between atoms: _283  and  _284
REMARK                            x       y       z     vdW  Elec       q    Type
REMARK                         _______ _______ _______ _____ _____    ______ ____
ROOT
ATOM      1  CG  LYS A   1      22.217  40.975  37.504  0.00  0.00    -0.000 C 
ENDROOT
BRANCH   1   2
ATOM      2  CB  LYS A   1      21.105  41.847  38.077  0.00  0.00    +0.025 C 
BRANCH   2   3
ATOM      3  CA  LYS A   1      21.078  43.255  37.497  0.00  0.00    +0.133 C 
BRANCH   3   4
ATOM      4  N   LYS A   1      22.131  44.060  38.099  0.00  0.00    -0.239 NA
ATOM      5  H   LYS A   1      22.678  43.665  38.891  0.00  0.00    +0.142 HD
ENDBRANCH   3   4
BRANCH   3   6
ATOM      6  C   LYS A   1      19.690  43.846  37.671  0.00  0.00    +0.224 C 
ATOM      7  O   LYS A   1      18.821  43.654  36.821  0.00  0.00    -0.287 OA
ENDBRANCH   3   6
ENDBRANCH   2   3
ENDBRANCH   1   2
BRANCH   1   8
ATOM      8  CD  LYS A   1      22.305  39.666  38.281  0.00  0.00    -0.024 C 
BRANCH   8   9
ATOM      9  CE  LYS A   1      23.370  38.766  37.698  0.00  0.00    -0.086 C 
BRANCH   9  10
ATOM     10  NZ  LYS A   1      23.433  37.471  38.422  0.00  0.00    +0.380 N 
ATOM     11  HZ1 LYS A   1      23.656  37.645  39.423  0.00  0.00    -0.089 HD
ATOM     12  HZ2 LYS A   1      22.514  36.989  38.349  0.00  0.00    -0.089 HD
ATOM     13  HZ3 LYS A   1      24.173  36.875  37.999  0.00  0.00    -0.089 HD
ENDBRANCH   9  10
ENDBRANCH   8   9
ENDBRANCH   1   8
TORSDOF 7
REMARK  Name = ../refined-set-2016/4g0q/4g0q_pocket.pdb
REMARK  124 active torsions:
REMARK  status: ('A' for Active; 'I' for Inactive)
REMARK    1  A    between atoms: _1  and  _3
REMARK    2  A    between atoms: _3  and  _4
REMARK    3  A    between atoms: _3  and  _6
REMARK    4  A    between atoms: _6  and  _7
REMARK    5  A    between atoms: _10  and  _12
REMARK    6  A    between atoms: _12  and  _13
REMARK    7  A    between atoms: _12  and  _15
REMARK    8  A    between atoms: _15  and  _16
REMARK    9  A    between atoms: _19  and  _21
REMARK   10  A    between atoms: _21  and  _22
REMARK   11  A    between atoms: _21  and  _24
REMARK   12  A    between atoms: _27  and  _29
REMARK   13  A    between atoms: _29  and  _30
REMARK   14  A    between atoms: _29  and  _32
REMARK   15  A    between atoms: _32  and  _33
REMARK   16  A    between atoms: _37  and  _38
REMARK   17  A    between atoms: _43  and  _45
REMARK   18  A    between atoms: _45  and  _46
REMARK   19  A    between atoms: _45  and  _48
REMARK   20  A    between atoms: _48  and  _49
REMARK   21  A    between atoms: _52  and  _54
REMARK   22  A    between atoms: _54  and  _55
REMARK   23  A    between atoms: _54  and  _57
REMARK   24  A    between atoms: _57  and  _58
REMARK   25  A    between atoms: _63  and  _65
REMARK   26  A    between atoms: _65  and  _66
REMARK   27  A    between atoms: _65  and  _68
REMARK   28  A    between atoms: _68  and  _69
REMARK   29  A    between atoms: _74  and  _76
REMARK   30  A    between atoms: _76  and  _77
REMARK   31  A    between atoms: _79  and  _81
REMARK   32  A    between atoms: _81  and  _82
REMARK   33  A    between atoms: _81  and  _84
REMARK   34  A    between atoms: _84  and  _85
REMARK   35  A    between atoms: _87  and  _89
REMARK   36  A    between atoms: _89  and  _90
REMARK   37  A    between atoms: _89  and  _92
REMARK   38  A    between atoms: _92  and  _93
REMARK   39  A    between atoms: _96  and  _98
REMARK   40  A    between atoms: _98  and  _99
REMARK   41  A    between atoms: _98  and  _101
REMARK   42  A    between atoms: _101  and  _102
REMARK   43  A    between atoms: _107  and  _108
REMARK   44  A    between atoms: _110  and  _112
REMARK   45  A    between atoms: _112  and  _113
REMARK   46  A    between atoms: _115  and  _117
REMARK   47  A    between atoms: _117  and  _118
REMARK   48  A    between atoms: _117  and  _120
REMARK   49  A    between atoms: _120  and  _121
REMARK   50  A    between atoms: _124  and  _126
REMARK   51  A    between atoms: _126  and  _127
REMARK   52  A    between atoms: _126  and  _129
REMARK   53  A    between atoms: _129  and  _130
REMARK   54  A    between atoms: _130  and  _131
REMARK   55  A    between atoms: _131  and  _132
REMARK   56  A    between atoms: _132  and  _133
REMARK   57  A    between atoms: _137  and  _139
REMARK   58  A    between atoms: _139  and  _140
REMARK   59  A    between atoms: _139  and  _142
REMARK   60  A    between atoms: _142  and  _143
REMARK   61  A    between atoms: _143  and  _144
REMARK   62  A    between atoms: _147  and  _149
REMARK   63  A    between atoms: _149  and  _150
REMARK   64  A    between atoms: _149  and  _152
REMARK   65  A    between atoms: _155  and  _157
REMARK   66  A    between atoms: _157  and  _158
REMARK   67  A    between atoms: _157  and  _160
REMARK   68  A    between atoms: _160  and  _161
REMARK   69  A    between atoms: _163  and  _165
REMARK   70  A    between atoms: _165  and  _166
REMARK   71  A    between atoms: _165  and  _168
REMARK   72  A    between atoms: _168  and  _169
REMARK   73  A    between atoms: _169  and  _170
REMARK   74  A    between atoms: _175  and  _177
REMARK   75  A    between atoms: _177  and  _178
REMARK   76  A    between atoms: _177  and  _180
REMARK   77  A    between atoms: _182  and  _184
REMARK   78  A    between atoms: _184  and  _185
REMARK   79  A    between atoms: _184  and  _187
REMARK   80  A    between atoms: _189  and  _191
REMARK   81  A    between atoms: _191  and  _192
REMARK   82  A    between atoms: _191  and  _194
REMARK   83  A    between atoms: _194  and  _195
REMARK   84  A    between atoms: _198  and  _200
REMARK   85  A    between atoms: _200  and  _201
REMARK   86  A    between atoms: _200  and  _203
REMARK   87  A    between atoms: _203  and  _204
REMARK   88  A    between atoms: _207  and  _209
REMARK   89  A    between atoms: _209  and  _210
REMARK   90  A    between atoms: _209  and  _212
REMARK   91  A    between atoms: _212  and  _213
REMARK   92  A    between atoms: _213  and  _214
REMARK   93  A    between atoms: _214  and  _215
REMARK   94  A    between atoms: _215  and  _216
REMARK   95  A    between atoms: _220  and  _222
REMARK   96  A    between atoms: _222  and  _223
REMARK   97  A    between atoms: _222  and  _225
REMARK   98  A    between atoms: _225  and  _226
REMARK   99  A    between atoms: _231  and  _233
REMARK  100  A    between atoms: _233  and  _234
REMARK  101  A    between atoms: _233  and  _236
REMARK  102  A    between atoms: _236  and  _237
REMARK  103  A    between atoms: _242  and  _243
REMARK  104  A    between atoms: _245  and  _247
REMARK  105  A    between atoms: _247  and  _248
REMARK  106  A    between atoms: _247  and  _250
REMARK  107  A    between atoms: _253  and  _255
REMARK  108  A    between atoms: _255  and  _256
REMARK  109  A    between atoms: _255  and  _258
REMARK  110  A    between atoms: _258  and  _259
REMARK  111  A    between atoms: _259  and  _260
REMARK  112  A    between atoms: _260  and  _261
REMARK  113  A    between atoms: _261  and  _262
REMARK  114  A    between atoms: _266  and  _268
REMARK  115  A    between atoms: _268  and  _269
REMARK  116  A    between atoms: _268  and  _271
REMARK  117  A    between atoms: _271  and  _272
REMARK  118  A    between atoms: _275  and  _277
REMARK  119  A    between atoms: _277  and  _278
REMARK  120  A    between atoms: _277  and  _280
REMARK  121  A    between atoms: _280  and  _281
REMARK  122  A    between atoms: _281  and  _282
REMARK  123  A    between atoms: _282  and  _283
REMARK  124  A    between atoms: _283  and  _284
REMARK                            x       y       z     vdW  Elec       q    Type
REMARK                         _______ _______ _______ _____ _____    ______ ____
ROOT
ATOM      1  O   HOH     1      25.679  24.922  33.420  0.00  0.00    +0.000 OA
ENDROOT
TORSDOF 0
REMARK  Name = ../refined-set-2016/4g0q/4g0q_pocket.pdb
REMARK  124 active torsions:
REMARK  status: ('A' for Active; 'I' for Inactive)
REMARK    1  A    between atoms: _1  and  _3
REMARK    2  A    between atoms: _3  and  _4
REMARK    3  A    between atoms: _3  and  _6
REMARK    4  A    between atoms: _6  and  _7
REMARK    5  A    between atoms: _10  and  _12
REMARK    6  A    between atoms: _12  and  _13
REMARK    7  A    between atoms: _12  and  _15
REMARK    8  A    between atoms: _15  and  _16
REMARK    9  A    between atoms: _19  and  _21
REMARK   10  A    between atoms: _21  and  _22
REMARK   11  A    between atoms: _21  and  _24
REMARK   12  A    between atoms: _27  and  _29
REMARK   13  A    between atoms: _29  and  _30
REMARK   14  A    between atoms: _29  and  _32
REMARK   15  A    between atoms: _32  and  _33
REMARK   16  A    between atoms: _37  and  _38
REMARK   17  A    between atoms: _43  and  _45
REMARK   18  A    between atoms: _45  and  _46
REMARK   19  A    between atoms: _45  and  _48
REMARK   20  A    between atoms: _48  and  _49
REMARK   21  A    between atoms: _52  and  _54
REMARK   22  A    between atoms: _54  and  _55
REMARK   23  A    between atoms: _54  and  _57
REMARK   24  A    between atoms: _57  and  _58
REMARK   25  A    between atoms: _63  and  _65
REMARK   26  A    between atoms: _65  and  _66
REMARK   27  A    between atoms: _65  and  _68
REMARK   28  A    between atoms: _68  and  _69
REMARK   29  A    between atoms: _74  and  _76
REMARK   30  A    between atoms: _76  and  _77
REMARK   31  A    between atoms: _79  and  _81
REMARK   32  A    between atoms: _81  and  _82
REMARK   33  A    between atoms: _81  and  _84
REMARK   34  A    between atoms: _84  and  _85
REMARK   35  A    between atoms: _87  and  _89
REMARK   36  A    between atoms: _89  and  _90
REMARK   37  A    between atoms: _89  and  _92
REMARK   38  A    between atoms: _92  and  _93
REMARK   39  A    between atoms: _96  and  _98
REMARK   40  A    between atoms: _98  and  _99
REMARK   41  A    between atoms: _98  and  _101
REMARK   42  A    between atoms: _101  and  _102
REMARK   43  A    between atoms: _107  and  _108
REMARK   44  A    between atoms: _110  and  _112
REMARK   45  A    between atoms: _112  and  _113
REMARK   46  A    between atoms: _115  and  _117
REMARK   47  A    between atoms: _117  and  _118
REMARK   48  A    between atoms: _117  and  _120
REMARK   49  A    between atoms: _120  and  _121
REMARK   50  A    between atoms: _124  and  _126
REMARK   51  A    between atoms: _126  and  _127
REMARK   52  A    between atoms: _126  and  _129
REMARK   53  A    between atoms: _129  and  _130
REMARK   54  A    between atoms: _130  and  _131
REMARK   55  A    between atoms: _131  and  _132
REMARK   56  A    between atoms: _132  and  _133
REMARK   57  A    between atoms: _137  and  _139
REMARK   58  A    between atoms: _139  and  _140
REMARK   59  A    between atoms: _139  and  _142
REMARK   60  A    between atoms: _142  and  _143
REMARK   61  A    between atoms: _143  and  _144
REMARK   62  A    between atoms: _147  and  _149
REMARK   63  A    between atoms: _149  and  _150
REMARK   64  A    between atoms: _149  and  _152
REMARK   65  A    between atoms: _155  and  _157
REMARK   66  A    between atoms: _157  and  _158
REMARK   67  A    between atoms: _157  and  _160
REMARK   68  A    between atoms: _160  and  _161
REMARK   69  A    between atoms: _163  and  _165
REMARK   70  A    between atoms: _165  and  _166
REMARK   71  A    between atoms: _165  and  _168
REMARK   72  A    between atoms: _168  and  _169
REMARK   73  A    between atoms: _169  and  _170
REMARK   74  A    between atoms: _175  and  _177
REMARK   75  A    between atoms: _177  and  _178
REMARK   76  A    between atoms: _177  and  _180
REMARK   77  A    between atoms: _182  and  _184
REMARK   78  A    between atoms: _184  and  _185
REMARK   79  A    between atoms: _184  and  _187
REMARK   80  A    between atoms: _189  and  _191
REMARK   81  A    between atoms: _191  and  _192
REMARK   82  A    between atoms: _191  and  _194
REMARK   83  A    between atoms: _194  and  _195
REMARK   84  A    between atoms: _198  and  _200
REMARK   85  A    between atoms: _200  and  _201
REMARK   86  A    between atoms: _200  and  _203
REMARK   87  A    between atoms: _203  and  _204
REMARK   88  A    between atoms: _207  and  _209
REMARK   89  A    between atoms: _209  and  _210
REMARK   90  A    between atoms: _209  and  _212
REMARK   91  A    between atoms: _212  and  _213
REMARK   92  A    between atoms: _213  and  _214
REMARK   93  A    between atoms: _214  and  _215
REMARK   94  A    between atoms: _215  and  _216
REMARK   95  A    between atoms: _220  and  _222
REMARK   96  A    between atoms: _222  and  _223
REMARK   97  A    between atoms: _222  and  _225
REMARK   98  A    between atoms: _225  and  _226
REMARK   99  A    between atoms: _231  and  _233
REMARK  100  A    between atoms: _233  and  _234
REMARK  101  A    between atoms: _233  and  _236
REMARK  102  A    between atoms: _236  and  _237
REMARK  103  A    between atoms: _242  and  _243
REMARK  104  A    between atoms: _245  and  _247
REMARK  105  A    between atoms: _247  and  _248
REMARK  106  A    between atoms: _247  and  _250
REMARK  107  A    between atoms: _253  and  _255
REMARK  108  A    between atoms: _255  and  _256
REMARK  109  A    between atoms: _255  and  _258
REMARK  110  A    between atoms: _258  and  _259
REMARK  111  A    between atoms: _259  and  _260
REMARK  112  A    between atoms: _260  and  _261
REMARK  113  A    between atoms: _261  and  _262
REMARK  114  A    between atoms: _266  and  _268
REMARK  115  A    between atoms: _268  and  _269
REMARK  116  A    between atoms: _268  and  _271
REMARK  117  A    between atoms: _271  and  _272
REMARK  118  A    between atoms: _275  and  _277
REMARK  119  A    between atoms: _277  and  _278
REMARK  120  A    between atoms: _277  and  _280
REMARK  121  A    between atoms: _280  and  _281
REMARK  122  A    between atoms: _281  and  _282
REMARK  123  A    between atoms: _282  and  _283
REMARK  124  A    between atoms: _283  and  _284
REMARK                            x       y       z     vdW  Elec       q    Type
REMARK                         _______ _______ _______ _____ _____    ______ ____
ROOT
ATOM      1  O   HOH     1      21.909  29.363  29.638  0.00  0.00    +0.000 OA
ENDROOT
TORSDOF 0
REMARK  Name = ../refined-set-2016/4g0q/4g0q_pocket.pdb
REMARK  124 active torsions:
REMARK  status: ('A' for Active; 'I' for Inactive)
REMARK    1  A    between atoms: _1  and  _3
REMARK    2  A    between atoms: _3  and  _4
REMARK    3  A    between atoms: _3  and  _6
REMARK    4  A    between atoms: _6  and  _7
REMARK    5  A    between atoms: _10  and  _12
REMARK    6  A    between atoms: _12  and  _13
REMARK    7  A    between atoms: _12  and  _15
REMARK    8  A    between atoms: _15  and  _16
REMARK    9  A    between atoms: _19  and  _21
REMARK   10  A    between atoms: _21  and  _22
REMARK   11  A    between atoms: _21  and  _24
REMARK   12  A    between atoms: _27  and  _29
REMARK   13  A    between atoms: _29  and  _30
REMARK   14  A    between atoms: _29  and  _32
REMARK   15  A    between atoms: _32  and  _33
REMARK   16  A    between atoms: _37  and  _38
REMARK   17  A    between atoms: _43  and  _45
REMARK   18  A    between atoms: _45  and  _46
REMARK   19  A    between atoms: _45  and  _48
REMARK   20  A    between atoms: _48  and  _49
REMARK   21  A    between atoms: _52  and  _54
REMARK   22  A    between atoms: _54  and  _55
REMARK   23  A    between atoms: _54  and  _57
REMARK   24  A    between atoms: _57  and  _58
REMARK   25  A    between atoms: _63  and  _65
REMARK   26  A    between atoms: _65  and  _66
REMARK   27  A    between atoms: _65  and  _68
REMARK   28  A    between atoms: _68  and  _69
REMARK   29  A    between atoms: _74  and  _76
REMARK   30  A    between atoms: _76  and  _77
REMARK   31  A    between atoms: _79  and  _81
REMARK   32  A    between atoms: _81  and  _82
REMARK   33  A    between atoms: _81  and  _84
REMARK   34  A    between atoms: _84  and  _85
REMARK   35  A    between atoms: _87  and  _89
REMARK   36  A    between atoms: _89  and  _90
REMARK   37  A    between atoms: _89  and  _92
REMARK   38  A    between atoms: _92  and  _93
REMARK   39  A    between atoms: _96  and  _98
REMARK   40  A    between atoms: _98  and  _99
REMARK   41  A    between atoms: _98  and  _101
REMARK   42  A    between atoms: _101  and  _102
REMARK   43  A    between atoms: _107  and  _108
REMARK   44  A    between atoms: _110  and  _112
REMARK   45  A    between atoms: _112  and  _113
REMARK   46  A    between atoms: _115  and  _117
REMARK   47  A    between atoms: _117  and  _118
REMARK   48  A    between atoms: _117  and  _120
REMARK   49  A    between atoms: _120  and  _121
REMARK   50  A    between atoms: _124  and  _126
REMARK   51  A    between atoms: _126  and  _127
REMARK   52  A    between atoms: _126  and  _129
REMARK   53  A    between atoms: _129  and  _130
REMARK   54  A    between atoms: _130  and  _131
REMARK   55  A    between atoms: _131  and  _132
REMARK   56  A    between atoms: _132  and  _133
REMARK   57  A    between atoms: _137  and  _139
REMARK   58  A    between atoms: _139  and  _140
REMARK   59  A    between atoms: _139  and  _142
REMARK   60  A    between atoms: _142  and  _143
REMARK   61  A    between atoms: _143  and  _144
REMARK   62  A    between atoms: _147  and  _149
REMARK   63  A    between atoms: _149  and  _150
REMARK   64  A    between atoms: _149  and  _152
REMARK   65  A    between atoms: _155  and  _157
REMARK   66  A    between atoms: _157  and  _158
REMARK   67  A    between atoms: _157  and  _160
REMARK   68  A    between atoms: _160  and  _161
REMARK   69  A    between atoms: _163  and  _165
REMARK   70  A    between atoms: _165  and  _166
REMARK   71  A    between atoms: _165  and  _168
REMARK   72  A    between atoms: _168  and  _169
REMARK   73  A    between atoms: _169  and  _170
REMARK   74  A    between atoms: _175  and  _177
REMARK   75  A    between atoms: _177  and  _178
REMARK   76  A    between atoms: _177  and  _180
REMARK   77  A    between atoms: _182  and  _184
REMARK   78  A    between atoms: _184  and  _185
REMARK   79  A    between atoms: _184  and  _187
REMARK   80  A    between atoms: _189  and  _191
REMARK   81  A    between atoms: _191  and  _192
REMARK   82  A    between atoms: _191  and  _194
REMARK   83  A    between atoms: _194  and  _195
REMARK   84  A    between atoms: _198  and  _200
REMARK   85  A    between atoms: _200  and  _201
REMARK   86  A    between atoms: _200  and  _203
REMARK   87  A    between atoms: _203  and  _204
REMARK   88  A    between atoms: _207  and  _209
REMARK   89  A    between atoms: _209  and  _210
REMARK   90  A    between atoms: _209  and  _212
REMARK   91  A    between atoms: _212  and  _213
REMARK   92  A    between atoms: _213  and  _214
REMARK   93  A    between atoms: _214  and  _215
REMARK   94  A    between atoms: _215  and  _216
REMARK   95  A    between atoms: _220  and  _222
REMARK   96  A    between atoms: _222  and  _223
REMARK   97  A    between atoms: _222  and  _225
REMARK   98  A    between atoms: _225  and  _226
REMARK   99  A    between atoms: _231  and  _233
REMARK  100  A    between atoms: _233  and  _234
REMARK  101  A    between atoms: _233  and  _236
REMARK  102  A    between atoms: _236  and  _237
REMARK  103  A    between atoms: _242  and  _243
REMARK  104  A    between atoms: _245  and  _247
REMARK  105  A    between atoms: _247  and  _248
REMARK  106  A    between atoms: _247  and  _250
REMARK  107  A    between atoms: _253  and  _255
REMARK  108  A    between atoms: _255  and  _256
REMARK  109  A    between atoms: _255  and  _258
REMARK  110  A    between atoms: _258  and  _259
REMARK  111  A    between atoms: _259  and  _260
REMARK  112  A    between atoms: _260  and  _261
REMARK  113  A    between atoms: _261  and  _262
REMARK  114  A    between atoms: _266  and  _268
REMARK  115  A    between atoms: _268  and  _269
REMARK  116  A    between atoms: _268  and  _271
REMARK  117  A    between atoms: _271  and  _272
REMARK  118  A    between atoms: _275  and  _277
REMARK  119  A    between atoms: _277  and  _278
REMARK  120  A    between atoms: _277  and  _280
REMARK  121  A    between atoms: _280  and  _281
REMARK  122  A    between atoms: _281  and  _282
REMARK  123  A    between atoms: _282  and  _283
REMARK  124  A    between atoms: _283  and  _284
REMARK                            x       y       z     vdW  Elec       q    Type
REMARK                         _______ _______ _______ _____ _____    ______ ____
ROOT
ATOM      1  O   HOH     1      28.070  24.792  36.177  0.00  0.00    +0.000 OA
ENDROOT
TORSDOF 0
REMARK  Name = ../refined-set-2016/4g0q/4g0q_pocket.pdb
REMARK  124 active torsions:
REMARK  status: ('A' for Active; 'I' for Inactive)
REMARK    1  A    between atoms: _1  and  _3
REMARK    2  A    between atoms: _3  and  _4
REMARK    3  A    between atoms: _3  and  _6
REMARK    4  A    between atoms: _6  and  _7
REMARK    5  A    between atoms: _10  and  _12
REMARK    6  A    between atoms: _12  and  _13
REMARK    7  A    between atoms: _12  and  _15
REMARK    8  A    between atoms: _15  and  _16
REMARK    9  A    between atoms: _19  and  _21
REMARK   10  A    between atoms: _21  and  _22
REMARK   11  A    between atoms: _21  and  _24
REMARK   12  A    between atoms: _27  and  _29
REMARK   13  A    between atoms: _29  and  _30
REMARK   14  A    between atoms: _29  and  _32
REMARK   15  A    between atoms: _32  and  _33
REMARK   16  A    between atoms: _37  and  _38
REMARK   17  A    between atoms: _43  and  _45
REMARK   18  A    between atoms: _45  and  _46
REMARK   19  A    between atoms: _45  and  _48
REMARK   20  A    between atoms: _48  and  _49
REMARK   21  A    between atoms: _52  and  _54
REMARK   22  A    between atoms: _54  and  _55
REMARK   23  A    between atoms: _54  and  _57
REMARK   24  A    between atoms: _57  and  _58
REMARK   25  A    between atoms: _63  and  _65
REMARK   26  A    between atoms: _65  and  _66
REMARK   27  A    between atoms: _65  and  _68
REMARK   28  A    between atoms: _68  and  _69
REMARK   29  A    between atoms: _74  and  _76
REMARK   30  A    between atoms: _76  and  _77
REMARK   31  A    between atoms: _79  and  _81
REMARK   32  A    between atoms: _81  and  _82
REMARK   33  A    between atoms: _81  and  _84
REMARK   34  A    between atoms: _84  and  _85
REMARK   35  A    between atoms: _87  and  _89
REMARK   36  A    between atoms: _89  and  _90
REMARK   37  A    between atoms: _89  and  _92
REMARK   38  A    between atoms: _92  and  _93
REMARK   39  A    between atoms: _96  and  _98
REMARK   40  A    between atoms: _98  and  _99
REMARK   41  A    between atoms: _98  and  _101
REMARK   42  A    between atoms: _101  and  _102
REMARK   43  A    between atoms: _107  and  _108
REMARK   44  A    between atoms: _110  and  _112
REMARK   45  A    between atoms: _112  and  _113
REMARK   46  A    between atoms: _115  and  _117
REMARK   47  A    between atoms: _117  and  _118
REMARK   48  A    between atoms: _117  and  _120
REMARK   49  A    between atoms: _120  and  _121
REMARK   50  A    between atoms: _124  and  _126
REMARK   51  A    between atoms: _126  and  _127
REMARK   52  A    between atoms: _126  and  _129
REMARK   53  A    between atoms: _129  and  _130
REMARK   54  A    between atoms: _130  and  _131
REMARK   55  A    between atoms: _131  and  _132
REMARK   56  A    between atoms: _132  and  _133
REMARK   57  A    between atoms: _137  and  _139
REMARK   58  A    between atoms: _139  and  _140
REMARK   59  A    between atoms: _139  and  _142
REMARK   60  A    between atoms: _142  and  _143
REMARK   61  A    between atoms: _143  and  _144
REMARK   62  A    between atoms: _147  and  _149
REMARK   63  A    between atoms: _149  and  _150
REMARK   64  A    between atoms: _149  and  _152
REMARK   65  A    between atoms: _155  and  _157
REMARK   66  A    between atoms: _157  and  _158
REMARK   67  A    between atoms: _157  and  _160
REMARK   68  A    between atoms: _160  and  _161
REMARK   69  A    between atoms: _163  and  _165
REMARK   70  A    between atoms: _165  and  _166
REMARK   71  A    between atoms: _165  and  _168
REMARK   72  A    between atoms: _168  and  _169
REMARK   73  A    between atoms: _169  and  _170
REMARK   74  A    between atoms: _175  and  _177
REMARK   75  A    between atoms: _177  and  _178
REMARK   76  A    between atoms: _177  and  _180
REMARK   77  A    between atoms: _182  and  _184
REMARK   78  A    between atoms: _184  and  _185
REMARK   79  A    between atoms: _184  and  _187
REMARK   80  A    between atoms: _189  and  _191
REMARK   81  A    between atoms: _191  and  _192
REMARK   82  A    between atoms: _191  and  _194
REMARK   83  A    between atoms: _194  and  _195
REMARK   84  A    between atoms: _198  and  _200
REMARK   85  A    between atoms: _200  and  _201
REMARK   86  A    between atoms: _200  and  _203
REMARK   87  A    between atoms: _203  and  _204
REMARK   88  A    between atoms: _207  and  _209
REMARK   89  A    between atoms: _209  and  _210
REMARK   90  A    between atoms: _209  and  _212
REMARK   91  A    between atoms: _212  and  _213
REMARK   92  A    between atoms: _213  and  _214
REMARK   93  A    between atoms: _214  and  _215
REMARK   94  A    between atoms: _215  and  _216
REMARK   95  A    between atoms: _220  and  _222
REMARK   96  A    between atoms: _222  and  _223
REMARK   97  A    between atoms: _222  and  _225
REMARK   98  A    between atoms: _225  and  _226
REMARK   99  A    between atoms: _231  and  _233
REMARK  100  A    between atoms: _233  and  _234
REMARK  101  A    between atoms: _233  and  _236
REMARK  102  A    between atoms: _236  and  _237
REMARK  103  A    between atoms: _242  and  _243
REMARK  104  A    between atoms: _245  and  _247
REMARK  105  A    between atoms: _247  and  _248
REMARK  106  A    between atoms: _247  and  _250
REMARK  107  A    between atoms: _253  and  _255
REMARK  108  A    between atoms: _255  and  _256
REMARK  109  A    between atoms: _255  and  _258
REMARK  110  A    between atoms: _258  and  _259
REMARK  111  A    between atoms: _259  and  _260
REMARK  112  A    between atoms: _260  and  _261
REMARK  113  A    between atoms: _261  and  _262
REMARK  114  A    between atoms: _266  and  _268
REMARK  115  A    between atoms: _268  and  _269
REMARK  116  A    between atoms: _268  and  _271
REMARK  117  A    between atoms: _271  and  _272
REMARK  118  A    between atoms: _275  and  _277
REMARK  119  A    between atoms: _277  and  _278
REMARK  120  A    between atoms: _277  and  _280
REMARK  121  A    between atoms: _280  and  _281
REMARK  122  A    between atoms: _281  and  _282
REMARK  123  A    between atoms: _282  and  _283
REMARK  124  A    between atoms: _283  and  _284
REMARK                            x       y       z     vdW  Elec       q    Type
REMARK                         _______ _______ _______ _____ _____    ______ ____
ROOT
ATOM      1  O   HOH     1      18.165  35.406  35.195  0.00  0.00    +0.000 OA
ENDROOT
TORSDOF 0
REMARK  Name = ../refined-set-2016/4g0q/4g0q_pocket.pdb
REMARK  124 active torsions:
REMARK  status: ('A' for Active; 'I' for Inactive)
REMARK    1  A    between atoms: _1  and  _3
REMARK    2  A    between atoms: _3  and  _4
REMARK    3  A    between atoms: _3  and  _6
REMARK    4  A    between atoms: _6  and  _7
REMARK    5  A    between atoms: _10  and  _12
REMARK    6  A    between atoms: _12  and  _13
REMARK    7  A    between atoms: _12  and  _15
REMARK    8  A    between atoms: _15  and  _16
REMARK    9  A    between atoms: _19  and  _21
REMARK   10  A    between atoms: _21  and  _22
REMARK   11  A    between atoms: _21  and  _24
REMARK   12  A    between atoms: _27  and  _29
REMARK   13  A    between atoms: _29  and  _30
REMARK   14  A    between atoms: _29  and  _32
REMARK   15  A    between atoms: _32  and  _33
REMARK   16  A    between atoms: _37  and  _38
REMARK   17  A    between atoms: _43  and  _45
REMARK   18  A    between atoms: _45  and  _46
REMARK   19  A    between atoms: _45  and  _48
REMARK   20  A    between atoms: _48  and  _49
REMARK   21  A    between atoms: _52  and  _54
REMARK   22  A    between atoms: _54  and  _55
REMARK   23  A    between atoms: _54  and  _57
REMARK   24  A    between atoms: _57  and  _58
REMARK   25  A    between atoms: _63  and  _65
REMARK   26  A    between atoms: _65  and  _66
REMARK   27  A    between atoms: _65  and  _68
REMARK   28  A    between atoms: _68  and  _69
REMARK   29  A    between atoms: _74  and  _76
REMARK   30  A    between atoms: _76  and  _77
REMARK   31  A    between atoms: _79  and  _81
REMARK   32  A    between atoms: _81  and  _82
REMARK   33  A    between atoms: _81  and  _84
REMARK   34  A    between atoms: _84  and  _85
REMARK   35  A    between atoms: _87  and  _89
REMARK   36  A    between atoms: _89  and  _90
REMARK   37  A    between atoms: _89  and  _92
REMARK   38  A    between atoms: _92  and  _93
REMARK   39  A    between atoms: _96  and  _98
REMARK   40  A    between atoms: _98  and  _99
REMARK   41  A    between atoms: _98  and  _101
REMARK   42  A    between atoms: _101  and  _102
REMARK   43  A    between atoms: _107  and  _108
REMARK   44  A    between atoms: _110  and  _112
REMARK   45  A    between atoms: _112  and  _113
REMARK   46  A    between atoms: _115  and  _117
REMARK   47  A    between atoms: _117  and  _118
REMARK   48  A    between atoms: _117  and  _120
REMARK   49  A    between atoms: _120  and  _121
REMARK   50  A    between atoms: _124  and  _126
REMARK   51  A    between atoms: _126  and  _127
REMARK   52  A    between atoms: _126  and  _129
REMARK   53  A    between atoms: _129  and  _130
REMARK   54  A    between atoms: _130  and  _131
REMARK   55  A    between atoms: _131  and  _132
REMARK   56  A    between atoms: _132  and  _133
REMARK   57  A    between atoms: _137  and  _139
REMARK   58  A    between atoms: _139  and  _140
REMARK   59  A    between atoms: _139  and  _142
REMARK   60  A    between atoms: _142  and  _143
REMARK   61  A    between atoms: _143  and  _144
REMARK   62  A    between atoms: _147  and  _149
REMARK   63  A    between atoms: _149  and  _150
REMARK   64  A    between atoms: _149  and  _152
REMARK   65  A    between atoms: _155  and  _157
REMARK   66  A    between atoms: _157  and  _158
REMARK   67  A    between atoms: _157  and  _160
REMARK   68  A    between atoms: _160  and  _161
REMARK   69  A    between atoms: _163  and  _165
REMARK   70  A    between atoms: _165  and  _166
REMARK   71  A    between atoms: _165  and  _168
REMARK   72  A    between atoms: _168  and  _169
REMARK   73  A    between atoms: _169  and  _170
REMARK   74  A    between atoms: _175  and  _177
REMARK   75  A    between atoms: _177  and  _178
REMARK   76  A    between atoms: _177  and  _180
REMARK   77  A    between atoms: _182  and  _184
REMARK   78  A    between atoms: _184  and  _185
REMARK   79  A    between atoms: _184  and  _187
REMARK   80  A    between atoms: _189  and  _191
REMARK   81  A    between atoms: _191  and  _192
REMARK   82  A    between atoms: _191  and  _194
REMARK   83  A    between atoms: _194  and  _195
REMARK   84  A    between atoms: _198  and  _200
REMARK   85  A    between atoms: _200  and  _201
REMARK   86  A    between atoms: _200  and  _203
REMARK   87  A    between atoms: _203  and  _204
REMARK   88  A    between atoms: _207  and  _209
REMARK   89  A    between atoms: _209  and  _210
REMARK   90  A    between atoms: _209  and  _212
REMARK   91  A    between atoms: _212  and  _213
REMARK   92  A    between atoms: _213  and  _214
REMARK   93  A    between atoms: _214  and  _215
REMARK   94  A    between atoms: _215  and  _216
REMARK   95  A    between atoms: _220  and  _222
REMARK   96  A    between atoms: _222  and  _223
REMARK   97  A    between atoms: _222  and  _225
REMARK   98  A    between atoms: _225  and  _226
REMARK   99  A    between atoms: _231  and  _233
REMARK  100  A    between atoms: _233  and  _234
REMARK  101  A    between atoms: _233  and  _236
REMARK  102  A    between atoms: _236  and  _237
REMARK  103  A    between atoms: _242  and  _243
REMARK  104  A    between atoms: _245  and  _247
REMARK  105  A    between atoms: _247  and  _248
REMARK  106  A    between atoms: _247  and  _250
REMARK  107  A    between atoms: _253  and  _255
REMARK  108  A    between atoms: _255  and  _256
REMARK  109  A    between atoms: _255  and  _258
REMARK  110  A    between atoms: _258  and  _259
REMARK  111  A    between atoms: _259  and  _260
REMARK  112  A    between atoms: _260  and  _261
REMARK  113  A    between atoms: _261  and  _262
REMARK  114  A    between atoms: _266  and  _268
REMARK  115  A    between atoms: _268  and  _269
REMARK  116  A    between atoms: _268  and  _271
REMARK  117  A    between atoms: _271  and  _272
REMARK  118  A    between atoms: _275  and  _277
REMARK  119  A    between atoms: _277  and  _278
REMARK  120  A    between atoms: _277  and  _280
REMARK  121  A    between atoms: _280  and  _281
REMARK  122  A    between atoms: _281  and  _282
REMARK  123  A    between atoms: _282  and  _283
REMARK  124  A    between atoms: _283  and  _284
REMARK                            x       y       z     vdW  Elec       q    Type
REMARK                         _______ _______ _______ _____ _____    ______ ____
ROOT
ATOM      1  O   HOH     1      29.721  23.417  38.040  0.00  0.00    +0.000 OA
ENDROOT
TORSDOF 0
REMARK  Name = ../refined-set-2016/4g0q/4g0q_pocket.pdb
REMARK  124 active torsions:
REMARK  status: ('A' for Active; 'I' for Inactive)
REMARK    1  A    between atoms: _1  and  _3
REMARK    2  A    between atoms: _3  and  _4
REMARK    3  A    between atoms: _3  and  _6
REMARK    4  A    between atoms: _6  and  _7
REMARK    5  A    between atoms: _10  and  _12
REMARK    6  A    between atoms: _12  and  _13
REMARK    7  A    between atoms: _12  and  _15
REMARK    8  A    between atoms: _15  and  _16
REMARK    9  A    between atoms: _19  and  _21
REMARK   10  A    between atoms: _21  and  _22
REMARK   11  A    between atoms: _21  and  _24
REMARK   12  A    between atoms: _27  and  _29
REMARK   13  A    between atoms: _29  and  _30
REMARK   14  A    between atoms: _29  and  _32
REMARK   15  A    between atoms: _32  and  _33
REMARK   16  A    between atoms: _37  and  _38
REMARK   17  A    between atoms: _43  and  _45
REMARK   18  A    between atoms: _45  and  _46
REMARK   19  A    between atoms: _45  and  _48
REMARK   20  A    between atoms: _48  and  _49
REMARK   21  A    between atoms: _52  and  _54
REMARK   22  A    between atoms: _54  and  _55
REMARK   23  A    between atoms: _54  and  _57
REMARK   24  A    between atoms: _57  and  _58
REMARK   25  A    between atoms: _63  and  _65
REMARK   26  A    between atoms: _65  and  _66
REMARK   27  A    between atoms: _65  and  _68
REMARK   28  A    between atoms: _68  and  _69
REMARK   29  A    between atoms: _74  and  _76
REMARK   30  A    between atoms: _76  and  _77
REMARK   31  A    between atoms: _79  and  _81
REMARK   32  A    between atoms: _81  and  _82
REMARK   33  A    between atoms: _81  and  _84
REMARK   34  A    between atoms: _84  and  _85
REMARK   35  A    between atoms: _87  and  _89
REMARK   36  A    between atoms: _89  and  _90
REMARK   37  A    between atoms: _89  and  _92
REMARK   38  A    between atoms: _92  and  _93
REMARK   39  A    between atoms: _96  and  _98
REMARK   40  A    between atoms: _98  and  _99
REMARK   41  A    between atoms: _98  and  _101
REMARK   42  A    between atoms: _101  and  _102
REMARK   43  A    between atoms: _107  and  _108
REMARK   44  A    between atoms: _110  and  _112
REMARK   45  A    between atoms: _112  and  _113
REMARK   46  A    between atoms: _115  and  _117
REMARK   47  A    between atoms: _117  and  _118
REMARK   48  A    between atoms: _117  and  _120
REMARK   49  A    between atoms: _120  and  _121
REMARK   50  A    between atoms: _124  and  _126
REMARK   51  A    between atoms: _126  and  _127
REMARK   52  A    between atoms: _126  and  _129
REMARK   53  A    between atoms: _129  and  _130
REMARK   54  A    between atoms: _130  and  _131
REMARK   55  A    between atoms: _131  and  _132
REMARK   56  A    between atoms: _132  and  _133
REMARK   57  A    between atoms: _137  and  _139
REMARK   58  A    between atoms: _139  and  _140
REMARK   59  A    between atoms: _139  and  _142
REMARK   60  A    between atoms: _142  and  _143
REMARK   61  A    between atoms: _143  and  _144
REMARK   62  A    between atoms: _147  and  _149
REMARK   63  A    between atoms: _149  and  _150
REMARK   64  A    between atoms: _149  and  _152
REMARK   65  A    between atoms: _155  and  _157
REMARK   66  A    between atoms: _157  and  _158
REMARK   67  A    between atoms: _157  and  _160
REMARK   68  A    between atoms: _160  and  _161
REMARK   69  A    between atoms: _163  and  _165
REMARK   70  A    between atoms: _165  and  _166
REMARK   71  A    between atoms: _165  and  _168
REMARK   72  A    between atoms: _168  and  _169
REMARK   73  A    between atoms: _169  and  _170
REMARK   74  A    between atoms: _175  and  _177
REMARK   75  A    between atoms: _177  and  _178
REMARK   76  A    between atoms: _177  and  _180
REMARK   77  A    between atoms: _182  and  _184
REMARK   78  A    between atoms: _184  and  _185
REMARK   79  A    between atoms: _184  and  _187
REMARK   80  A    between atoms: _189  and  _191
REMARK   81  A    between atoms: _191  and  _192
REMARK   82  A    between atoms: _191  and  _194
REMARK   83  A    between atoms: _194  and  _195
REMARK   84  A    between atoms: _198  and  _200
REMARK   85  A    between atoms: _200  and  _201
REMARK   86  A    between atoms: _200  and  _203
REMARK   87  A    between atoms: _203  and  _204
REMARK   88  A    between atoms: _207  and  _209
REMARK   89  A    between atoms: _209  and  _210
REMARK   90  A    between atoms: _209  and  _212
REMARK   91  A    between atoms: _212  and  _213
REMARK   92  A    between atoms: _213  and  _214
REMARK   93  A    between atoms: _214  and  _215
REMARK   94  A    between atoms: _215  and  _216
REMARK   95  A    between atoms: _220  and  _222
REMARK   96  A    between atoms: _222  and  _223
REMARK   97  A    between atoms: _222  and  _225
REMARK   98  A    between atoms: _225  and  _226
REMARK   99  A    between atoms: _231  and  _233
REMARK  100  A    between atoms: _233  and  _234
REMARK  101  A    between atoms: _233  and  _236
REMARK  102  A    between atoms: _236  and  _237
REMARK  103  A    between atoms: _242  and  _243
REMARK  104  A    between atoms: _245  and  _247
REMARK  105  A    between atoms: _247  and  _248
REMARK  106  A    between atoms: _247  and  _250
REMARK  107  A    between atoms: _253  and  _255
REMARK  108  A    between atoms: _255  and  _256
REMARK  109  A    between atoms: _255  and  _258
REMARK  110  A    between atoms: _258  and  _259
REMARK  111  A    between atoms: _259  and  _260
REMARK  112  A    between atoms: _260  and  _261
REMARK  113  A    between atoms: _261  and  _262
REMARK  114  A    between atoms: _266  and  _268
REMARK  115  A    between atoms: _268  and  _269
REMARK  116  A    between atoms: _268  and  _271
REMARK  117  A    between atoms: _271  and  _272
REMARK  118  A    between atoms: _275  and  _277
REMARK  119  A    between atoms: _277  and  _278
REMARK  120  A    between atoms: _277  and  _280
REMARK  121  A    between atoms: _280  and  _281
REMARK  122  A    between atoms: _281  and  _282
REMARK  123  A    between atoms: _282  and  _283
REMARK  124  A    between atoms: _283  and  _284
REMARK                            x       y       z     vdW  Elec       q    Type
REMARK                         _______ _______ _______ _____ _____    ______ ____
ROOT
ATOM      1  O   HOH     1      25.888  41.562  37.751  0.00  0.00    +0.000 OA
ENDROOT
TORSDOF 0
REMARK  Name = ../refined-set-2016/4g0q/4g0q_pocket.pdb
REMARK  124 active torsions:
REMARK  status: ('A' for Active; 'I' for Inactive)
REMARK    1  A    between atoms: _1  and  _3
REMARK    2  A    between atoms: _3  and  _4
REMARK    3  A    between atoms: _3  and  _6
REMARK    4  A    between atoms: _6  and  _7
REMARK    5  A    between atoms: _10  and  _12
REMARK    6  A    between atoms: _12  and  _13
REMARK    7  A    between atoms: _12  and  _15
REMARK    8  A    between atoms: _15  and  _16
REMARK    9  A    between atoms: _19  and  _21
REMARK   10  A    between atoms: _21  and  _22
REMARK   11  A    between atoms: _21  and  _24
REMARK   12  A    between atoms: _27  and  _29
REMARK   13  A    between atoms: _29  and  _30
REMARK   14  A    between atoms: _29  and  _32
REMARK   15  A    between atoms: _32  and  _33
REMARK   16  A    between atoms: _37  and  _38
REMARK   17  A    between atoms: _43  and  _45
REMARK   18  A    between atoms: _45  and  _46
REMARK   19  A    between atoms: _45  and  _48
REMARK   20  A    between atoms: _48  and  _49
REMARK   21  A    between atoms: _52  and  _54
REMARK   22  A    between atoms: _54  and  _55
REMARK   23  A    between atoms: _54  and  _57
REMARK   24  A    between atoms: _57  and  _58
REMARK   25  A    between atoms: _63  and  _65
REMARK   26  A    between atoms: _65  and  _66
REMARK   27  A    between atoms: _65  and  _68
REMARK   28  A    between atoms: _68  and  _69
REMARK   29  A    between atoms: _74  and  _76
REMARK   30  A    between atoms: _76  and  _77
REMARK   31  A    between atoms: _79  and  _81
REMARK   32  A    between atoms: _81  and  _82
REMARK   33  A    between atoms: _81  and  _84
REMARK   34  A    between atoms: _84  and  _85
REMARK   35  A    between atoms: _87  and  _89
REMARK   36  A    between atoms: _89  and  _90
REMARK   37  A    between atoms: _89  and  _92
REMARK   38  A    between atoms: _92  and  _93
REMARK   39  A    between atoms: _96  and  _98
REMARK   40  A    between atoms: _98  and  _99
REMARK   41  A    between atoms: _98  and  _101
REMARK   42  A    between atoms: _101  and  _102
REMARK   43  A    between atoms: _107  and  _108
REMARK   44  A    between atoms: _110  and  _112
REMARK   45  A    between atoms: _112  and  _113
REMARK   46  A    between atoms: _115  and  _117
REMARK   47  A    between atoms: _117  and  _118
REMARK   48  A    between atoms: _117  and  _120
REMARK   49  A    between atoms: _120  and  _121
REMARK   50  A    between atoms: _124  and  _126
REMARK   51  A    between atoms: _126  and  _127
REMARK   52  A    between atoms: _126  and  _129
REMARK   53  A    between atoms: _129  and  _130
REMARK   54  A    between atoms: _130  and  _131
REMARK   55  A    between atoms: _131  and  _132
REMARK   56  A    between atoms: _132  and  _133
REMARK   57  A    between atoms: _137  and  _139
REMARK   58  A    between atoms: _139  and  _140
REMARK   59  A    between atoms: _139  and  _142
REMARK   60  A    between atoms: _142  and  _143
REMARK   61  A    between atoms: _143  and  _144
REMARK   62  A    between atoms: _147  and  _149
REMARK   63  A    between atoms: _149  and  _150
REMARK   64  A    between atoms: _149  and  _152
REMARK   65  A    between atoms: _155  and  _157
REMARK   66  A    between atoms: _157  and  _158
REMARK   67  A    between atoms: _157  and  _160
REMARK   68  A    between atoms: _160  and  _161
REMARK   69  A    between atoms: _163  and  _165
REMARK   70  A    between atoms: _165  and  _166
REMARK   71  A    between atoms: _165  and  _168
REMARK   72  A    between atoms: _168  and  _169
REMARK   73  A    between atoms: _169  and  _170
REMARK   74  A    between atoms: _175  and  _177
REMARK   75  A    between atoms: _177  and  _178
REMARK   76  A    between atoms: _177  and  _180
REMARK   77  A    between atoms: _182  and  _184
REMARK   78  A    between atoms: _184  and  _185
REMARK   79  A    between atoms: _184  and  _187
REMARK   80  A    between atoms: _189  and  _191
REMARK   81  A    between atoms: _191  and  _192
REMARK   82  A    between atoms: _191  and  _194
REMARK   83  A    between atoms: _194  and  _195
REMARK   84  A    between atoms: _198  and  _200
REMARK   85  A    between atoms: _200  and  _201
REMARK   86  A    between atoms: _200  and  _203
REMARK   87  A    between atoms: _203  and  _204
REMARK   88  A    between atoms: _207  and  _209
REMARK   89  A    between atoms: _209  and  _210
REMARK   90  A    between atoms: _209  and  _212
REMARK   91  A    between atoms: _212  and  _213
REMARK   92  A    between atoms: _213  and  _214
REMARK   93  A    between atoms: _214  and  _215
REMARK   94  A    between atoms: _215  and  _216
REMARK   95  A    between atoms: _220  and  _222
REMARK   96  A    between atoms: _222  and  _223
REMARK   97  A    between atoms: _222  and  _225
REMARK   98  A    between atoms: _225  and  _226
REMARK   99  A    between atoms: _231  and  _233
REMARK  100  A    between atoms: _233  and  _234
REMARK  101  A    between atoms: _233  and  _236
REMARK  102  A    between atoms: _236  and  _237
REMARK  103  A    between atoms: _242  and  _243
REMARK  104  A    between atoms: _245  and  _247
REMARK  105  A    between atoms: _247  and  _248
REMARK  106  A    between atoms: _247  and  _250
REMARK  107  A    between atoms: _253  and  _255
REMARK  108  A    between atoms: _255  and  _256
REMARK  109  A    between atoms: _255  and  _258
REMARK  110  A    between atoms: _258  and  _259
REMARK  111  A    between atoms: _259  and  _260
REMARK  112  A    between atoms: _260  and  _261
REMARK  113  A    between atoms: _261  and  _262
REMARK  114  A    between atoms: _266  and  _268
REMARK  115  A    between atoms: _268  and  _269
REMARK  116  A    between atoms: _268  and  _271
REMARK  117  A    between atoms: _271  and  _272
REMARK  118  A    between atoms: _275  and  _277
REMARK  119  A    between atoms: _277  and  _278
REMARK  120  A    between atoms: _277  and  _280
REMARK  121  A    between atoms: _280  and  _281
REMARK  122  A    between atoms: _281  and  _282
REMARK  123  A    between atoms: _282  and  _283
REMARK  124  A    between atoms: _283  and  _284
REMARK                            x       y       z     vdW  Elec       q    Type
REMARK                         _______ _______ _______ _____ _____    ______ ____
ROOT
ATOM      1  O   HOH     1      22.943  39.726  34.135  0.00  0.00    +0.000 OA
ENDROOT
TORSDOF 0
REMARK  Name = ../refined-set-2016/4g0q/4g0q_pocket.pdb
REMARK  124 active torsions:
REMARK  status: ('A' for Active; 'I' for Inactive)
REMARK    1  A    between atoms: _1  and  _3
REMARK    2  A    between atoms: _3  and  _4
REMARK    3  A    between atoms: _3  and  _6
REMARK    4  A    between atoms: _6  and  _7
REMARK    5  A    between atoms: _10  and  _12
REMARK    6  A    between atoms: _12  and  _13
REMARK    7  A    between atoms: _12  and  _15
REMARK    8  A    between atoms: _15  and  _16
REMARK    9  A    between atoms: _19  and  _21
REMARK   10  A    between atoms: _21  and  _22
REMARK   11  A    between atoms: _21  and  _24
REMARK   12  A    between atoms: _27  and  _29
REMARK   13  A    between atoms: _29  and  _30
REMARK   14  A    between atoms: _29  and  _32
REMARK   15  A    between atoms: _32  and  _33
REMARK   16  A    between atoms: _37  and  _38
REMARK   17  A    between atoms: _43  and  _45
REMARK   18  A    between atoms: _45  and  _46
REMARK   19  A    between atoms: _45  and  _48
REMARK   20  A    between atoms: _48  and  _49
REMARK   21  A    between atoms: _52  and  _54
REMARK   22  A    between atoms: _54  and  _55
REMARK   23  A    between atoms: _54  and  _57
REMARK   24  A    between atoms: _57  and  _58
REMARK   25  A    between atoms: _63  and  _65
REMARK   26  A    between atoms: _65  and  _66
REMARK   27  A    between atoms: _65  and  _68
REMARK   28  A    between atoms: _68  and  _69
REMARK   29  A    between atoms: _74  and  _76
REMARK   30  A    between atoms: _76  and  _77
REMARK   31  A    between atoms: _79  and  _81
REMARK   32  A    between atoms: _81  and  _82
REMARK   33  A    between atoms: _81  and  _84
REMARK   34  A    between atoms: _84  and  _85
REMARK   35  A    between atoms: _87  and  _89
REMARK   36  A    between atoms: _89  and  _90
REMARK   37  A    between atoms: _89  and  _92
REMARK   38  A    between atoms: _92  and  _93
REMARK   39  A    between atoms: _96  and  _98
REMARK   40  A    between atoms: _98  and  _99
REMARK   41  A    between atoms: _98  and  _101
REMARK   42  A    between atoms: _101  and  _102
REMARK   43  A    between atoms: _107  and  _108
REMARK   44  A    between atoms: _110  and  _112
REMARK   45  A    between atoms: _112  and  _113
REMARK   46  A    between atoms: _115  and  _117
REMARK   47  A    between atoms: _117  and  _118
REMARK   48  A    between atoms: _117  and  _120
REMARK   49  A    between atoms: _120  and  _121
REMARK   50  A    between atoms: _124  and  _126
REMARK   51  A    between atoms: _126  and  _127
REMARK   52  A    between atoms: _126  and  _129
REMARK   53  A    between atoms: _129  and  _130
REMARK   54  A    between atoms: _130  and  _131
REMARK   55  A    between atoms: _131  and  _132
REMARK   56  A    between atoms: _132  and  _133
REMARK   57  A    between atoms: _137  and  _139
REMARK   58  A    between atoms: _139  and  _140
REMARK   59  A    between atoms: _139  and  _142
REMARK   60  A    between atoms: _142  and  _143
REMARK   61  A    between atoms: _143  and  _144
REMARK   62  A    between atoms: _147  and  _149
REMARK   63  A    between atoms: _149  and  _150
REMARK   64  A    between atoms: _149  and  _152
REMARK   65  A    between atoms: _155  and  _157
REMARK   66  A    between atoms: _157  and  _158
REMARK   67  A    between atoms: _157  and  _160
REMARK   68  A    between atoms: _160  and  _161
REMARK   69  A    between atoms: _163  and  _165
REMARK   70  A    between atoms: _165  and  _166
REMARK   71  A    between atoms: _165  and  _168
REMARK   72  A    between atoms: _168  and  _169
REMARK   73  A    between atoms: _169  and  _170
REMARK   74  A    between atoms: _175  and  _177
REMARK   75  A    between atoms: _177  and  _178
REMARK   76  A    between atoms: _177  and  _180
REMARK   77  A    between atoms: _182  and  _184
REMARK   78  A    between atoms: _184  and  _185
REMARK   79  A    between atoms: _184  and  _187
REMARK   80  A    between atoms: _189  and  _191
REMARK   81  A    between atoms: _191  and  _192
REMARK   82  A    between atoms: _191  and  _194
REMARK   83  A    between atoms: _194  and  _195
REMARK   84  A    between atoms: _198  and  _200
REMARK   85  A    between atoms: _200  and  _201
REMARK   86  A    between atoms: _200  and  _203
REMARK   87  A    between atoms: _203  and  _204
REMARK   88  A    between atoms: _207  and  _209
REMARK   89  A    between atoms: _209  and  _210
REMARK   90  A    between atoms: _209  and  _212
REMARK   91  A    between atoms: _212  and  _213
REMARK   92  A    between atoms: _213  and  _214
REMARK   93  A    between atoms: _214  and  _215
REMARK   94  A    between atoms: _215  and  _216
REMARK   95  A    between atoms: _220  and  _222
REMARK   96  A    between atoms: _222  and  _223
REMARK   97  A    between atoms: _222  and  _225
REMARK   98  A    between atoms: _225  and  _226
REMARK   99  A    between atoms: _231  and  _233
REMARK  100  A    between atoms: _233  and  _234
REMARK  101  A    between atoms: _233  and  _236
REMARK  102  A    between atoms: _236  and  _237
REMARK  103  A    between atoms: _242  and  _243
REMARK  104  A    between atoms: _245  and  _247
REMARK  105  A    between atoms: _247  and  _248
REMARK  106  A    between atoms: _247  and  _250
REMARK  107  A    between atoms: _253  and  _255
REMARK  108  A    between atoms: _255  and  _256
REMARK  109  A    between atoms: _255  and  _258
REMARK  110  A    between atoms: _258  and  _259
REMARK  111  A    between atoms: _259  and  _260
REMARK  112  A    between atoms: _260  and  _261
REMARK  113  A    between atoms: _261  and  _262
REMARK  114  A    between atoms: _266  and  _268
REMARK  115  A    between atoms: _268  and  _269
REMARK  116  A    between atoms: _268  and  _271
REMARK  117  A    between atoms: _271  and  _272
REMARK  118  A    between atoms: _275  and  _277
REMARK  119  A    between atoms: _277  and  _278
REMARK  120  A    between atoms: _277  and  _280
REMARK  121  A    between atoms: _280  and  _281
REMARK  122  A    between atoms: _281  and  _282
REMARK  123  A    between atoms: _282  and  _283
REMARK  124  A    between atoms: _283  and  _284
REMARK                            x       y       z     vdW  Elec       q    Type
REMARK                         _______ _______ _______ _____ _____    ______ ____
ROOT
ATOM      1  O   HOH     1      29.476  35.540  42.311  0.00  0.00    +0.000 OA
ENDROOT
TORSDOF 0
REMARK  Name = ../refined-set-2016/4g0q/4g0q_pocket.pdb
REMARK  124 active torsions:
REMARK  status: ('A' for Active; 'I' for Inactive)
REMARK    1  A    between atoms: _1  and  _3
REMARK    2  A    between atoms: _3  and  _4
REMARK    3  A    between atoms: _3  and  _6
REMARK    4  A    between atoms: _6  and  _7
REMARK    5  A    between atoms: _10  and  _12
REMARK    6  A    between atoms: _12  and  _13
REMARK    7  A    between atoms: _12  and  _15
REMARK    8  A    between atoms: _15  and  _16
REMARK    9  A    between atoms: _19  and  _21
REMARK   10  A    between atoms: _21  and  _22
REMARK   11  A    between atoms: _21  and  _24
REMARK   12  A    between atoms: _27  and  _29
REMARK   13  A    between atoms: _29  and  _30
REMARK   14  A    between atoms: _29  and  _32
REMARK   15  A    between atoms: _32  and  _33
REMARK   16  A    between atoms: _37  and  _38
REMARK   17  A    between atoms: _43  and  _45
REMARK   18  A    between atoms: _45  and  _46
REMARK   19  A    between atoms: _45  and  _48
REMARK   20  A    between atoms: _48  and  _49
REMARK   21  A    between atoms: _52  and  _54
REMARK   22  A    between atoms: _54  and  _55
REMARK   23  A    between atoms: _54  and  _57
REMARK   24  A    between atoms: _57  and  _58
REMARK   25  A    between atoms: _63  and  _65
REMARK   26  A    between atoms: _65  and  _66
REMARK   27  A    between atoms: _65  and  _68
REMARK   28  A    between atoms: _68  and  _69
REMARK   29  A    between atoms: _74  and  _76
REMARK   30  A    between atoms: _76  and  _77
REMARK   31  A    between atoms: _79  and  _81
REMARK   32  A    between atoms: _81  and  _82
REMARK   33  A    between atoms: _81  and  _84
REMARK   34  A    between atoms: _84  and  _85
REMARK   35  A    between atoms: _87  and  _89
REMARK   36  A    between atoms: _89  and  _90
REMARK   37  A    between atoms: _89  and  _92
REMARK   38  A    between atoms: _92  and  _93
REMARK   39  A    between atoms: _96  and  _98
REMARK   40  A    between atoms: _98  and  _99
REMARK   41  A    between atoms: _98  and  _101
REMARK   42  A    between atoms: _101  and  _102
REMARK   43  A    between atoms: _107  and  _108
REMARK   44  A    between atoms: _110  and  _112
REMARK   45  A    between atoms: _112  and  _113
REMARK   46  A    between atoms: _115  and  _117
REMARK   47  A    between atoms: _117  and  _118
REMARK   48  A    between atoms: _117  and  _120
REMARK   49  A    between atoms: _120  and  _121
REMARK   50  A    between atoms: _124  and  _126
REMARK   51  A    between atoms: _126  and  _127
REMARK   52  A    between atoms: _126  and  _129
REMARK   53  A    between atoms: _129  and  _130
REMARK   54  A    between atoms: _130  and  _131
REMARK   55  A    between atoms: _131  and  _132
REMARK   56  A    between atoms: _132  and  _133
REMARK   57  A    between atoms: _137  and  _139
REMARK   58  A    between atoms: _139  and  _140
REMARK   59  A    between atoms: _139  and  _142
REMARK   60  A    between atoms: _142  and  _143
REMARK   61  A    between atoms: _143  and  _144
REMARK   62  A    between atoms: _147  and  _149
REMARK   63  A    between atoms: _149  and  _150
REMARK   64  A    between atoms: _149  and  _152
REMARK   65  A    between atoms: _155  and  _157
REMARK   66  A    between atoms: _157  and  _158
REMARK   67  A    between atoms: _157  and  _160
REMARK   68  A    between atoms: _160  and  _161
REMARK   69  A    between atoms: _163  and  _165
REMARK   70  A    between atoms: _165  and  _166
REMARK   71  A    between atoms: _165  and  _168
REMARK   72  A    between atoms: _168  and  _169
REMARK   73  A    between atoms: _169  and  _170
REMARK   74  A    between atoms: _175  and  _177
REMARK   75  A    between atoms: _177  and  _178
REMARK   76  A    between atoms: _177  and  _180
REMARK   77  A    between atoms: _182  and  _184
REMARK   78  A    between atoms: _184  and  _185
REMARK   79  A    between atoms: _184  and  _187
REMARK   80  A    between atoms: _189  and  _191
REMARK   81  A    between atoms: _191  and  _192
REMARK   82  A    between atoms: _191  and  _194
REMARK   83  A    between atoms: _194  and  _195
REMARK   84  A    between atoms: _198  and  _200
REMARK   85  A    between atoms: _200  and  _201
REMARK   86  A    between atoms: _200  and  _203
REMARK   87  A    between atoms: _203  and  _204
REMARK   88  A    between atoms: _207  and  _209
REMARK   89  A    between atoms: _209  and  _210
REMARK   90  A    between atoms: _209  and  _212
REMARK   91  A    between atoms: _212  and  _213
REMARK   92  A    between atoms: _213  and  _214
REMARK   93  A    between atoms: _214  and  _215
REMARK   94  A    between atoms: _215  and  _216
REMARK   95  A    between atoms: _220  and  _222
REMARK   96  A    between atoms: _222  and  _223
REMARK   97  A    between atoms: _222  and  _225
REMARK   98  A    between atoms: _225  and  _226
REMARK   99  A    between atoms: _231  and  _233
REMARK  100  A    between atoms: _233  and  _234
REMARK  101  A    between atoms: _233  and  _236
REMARK  102  A    between atoms: _236  and  _237
REMARK  103  A    between atoms: _242  and  _243
REMARK  104  A    between atoms: _245  and  _247
REMARK  105  A    between atoms: _247  and  _248
REMARK  106  A    between atoms: _247  and  _250
REMARK  107  A    between atoms: _253  and  _255
REMARK  108  A    between atoms: _255  and  _256
REMARK  109  A    between atoms: _255  and  _258
REMARK  110  A    between atoms: _258  and  _259
REMARK  111  A    between atoms: _259  and  _260
REMARK  112  A    between atoms: _260  and  _261
REMARK  113  A    between atoms: _261  and  _262
REMARK  114  A    between atoms: _266  and  _268
REMARK  115  A    between atoms: _268  and  _269
REMARK  116  A    between atoms: _268  and  _271
REMARK  117  A    between atoms: _271  and  _272
REMARK  118  A    between atoms: _275  and  _277
REMARK  119  A    between atoms: _277  and  _278
REMARK  120  A    between atoms: _277  and  _280
REMARK  121  A    between atoms: _280  and  _281
REMARK  122  A    between atoms: _281  and  _282
REMARK  123  A    between atoms: _282  and  _283
REMARK  124  A    between atoms: _283  and  _284
REMARK                            x       y       z     vdW  Elec       q    Type
REMARK                         _______ _______ _______ _____ _____    ______ ____
ROOT
ATOM      1  O   HOH     1      24.822  41.191  35.122  0.00  0.00    +0.000 OA
ENDROOT
TORSDOF 0
REMARK  Name = ../refined-set-2016/4g0q/4g0q_pocket.pdb
REMARK  124 active torsions:
REMARK  status: ('A' for Active; 'I' for Inactive)
REMARK    1  A    between atoms: _1  and  _3
REMARK    2  A    between atoms: _3  and  _4
REMARK    3  A    between atoms: _3  and  _6
REMARK    4  A    between atoms: _6  and  _7
REMARK    5  A    between atoms: _10  and  _12
REMARK    6  A    between atoms: _12  and  _13
REMARK    7  A    between atoms: _12  and  _15
REMARK    8  A    between atoms: _15  and  _16
REMARK    9  A    between atoms: _19  and  _21
REMARK   10  A    between atoms: _21  and  _22
REMARK   11  A    between atoms: _21  and  _24
REMARK   12  A    between atoms: _27  and  _29
REMARK   13  A    between atoms: _29  and  _30
REMARK   14  A    between atoms: _29  and  _32
REMARK   15  A    between atoms: _32  and  _33
REMARK   16  A    between atoms: _37  and  _38
REMARK   17  A    between atoms: _43  and  _45
REMARK   18  A    between atoms: _45  and  _46
REMARK   19  A    between atoms: _45  and  _48
REMARK   20  A    between atoms: _48  and  _49
REMARK   21  A    between atoms: _52  and  _54
REMARK   22  A    between atoms: _54  and  _55
REMARK   23  A    between atoms: _54  and  _57
REMARK   24  A    between atoms: _57  and  _58
REMARK   25  A    between atoms: _63  and  _65
REMARK   26  A    between atoms: _65  and  _66
REMARK   27  A    between atoms: _65  and  _68
REMARK   28  A    between atoms: _68  and  _69
REMARK   29  A    between atoms: _74  and  _76
REMARK   30  A    between atoms: _76  and  _77
REMARK   31  A    between atoms: _79  and  _81
REMARK   32  A    between atoms: _81  and  _82
REMARK   33  A    between atoms: _81  and  _84
REMARK   34  A    between atoms: _84  and  _85
REMARK   35  A    between atoms: _87  and  _89
REMARK   36  A    between atoms: _89  and  _90
REMARK   37  A    between atoms: _89  and  _92
REMARK   38  A    between atoms: _92  and  _93
REMARK   39  A    between atoms: _96  and  _98
REMARK   40  A    between atoms: _98  and  _99
REMARK   41  A    between atoms: _98  and  _101
REMARK   42  A    between atoms: _101  and  _102
REMARK   43  A    between atoms: _107  and  _108
REMARK   44  A    between atoms: _110  and  _112
REMARK   45  A    between atoms: _112  and  _113
REMARK   46  A    between atoms: _115  and  _117
REMARK   47  A    between atoms: _117  and  _118
REMARK   48  A    between atoms: _117  and  _120
REMARK   49  A    between atoms: _120  and  _121
REMARK   50  A    between atoms: _124  and  _126
REMARK   51  A    between atoms: _126  and  _127
REMARK   52  A    between atoms: _126  and  _129
REMARK   53  A    between atoms: _129  and  _130
REMARK   54  A    between atoms: _130  and  _131
REMARK   55  A    between atoms: _131  and  _132
REMARK   56  A    between atoms: _132  and  _133
REMARK   57  A    between atoms: _137  and  _139
REMARK   58  A    between atoms: _139  and  _140
REMARK   59  A    between atoms: _139  and  _142
REMARK   60  A    between atoms: _142  and  _143
REMARK   61  A    between atoms: _143  and  _144
REMARK   62  A    between atoms: _147  and  _149
REMARK   63  A    between atoms: _149  and  _150
REMARK   64  A    between atoms: _149  and  _152
REMARK   65  A    between atoms: _155  and  _157
REMARK   66  A    between atoms: _157  and  _158
REMARK   67  A    between atoms: _157  and  _160
REMARK   68  A    between atoms: _160  and  _161
REMARK   69  A    between atoms: _163  and  _165
REMARK   70  A    between atoms: _165  and  _166
REMARK   71  A    between atoms: _165  and  _168
REMARK   72  A    between atoms: _168  and  _169
REMARK   73  A    between atoms: _169  and  _170
REMARK   74  A    between atoms: _175  and  _177
REMARK   75  A    between atoms: _177  and  _178
REMARK   76  A    between atoms: _177  and  _180
REMARK   77  A    between atoms: _182  and  _184
REMARK   78  A    between atoms: _184  and  _185
REMARK   79  A    between atoms: _184  and  _187
REMARK   80  A    between atoms: _189  and  _191
REMARK   81  A    between atoms: _191  and  _192
REMARK   82  A    between atoms: _191  and  _194
REMARK   83  A    between atoms: _194  and  _195
REMARK   84  A    between atoms: _198  and  _200
REMARK   85  A    between atoms: _200  and  _201
REMARK   86  A    between atoms: _200  and  _203
REMARK   87  A    between atoms: _203  and  _204
REMARK   88  A    between atoms: _207  and  _209
REMARK   89  A    between atoms: _209  and  _210
REMARK   90  A    between atoms: _209  and  _212
REMARK   91  A    between atoms: _212  and  _213
REMARK   92  A    between atoms: _213  and  _214
REMARK   93  A    between atoms: _214  and  _215
REMARK   94  A    between atoms: _215  and  _216
REMARK   95  A    between atoms: _220  and  _222
REMARK   96  A    between atoms: _222  and  _223
REMARK   97  A    between atoms: _222  and  _225
REMARK   98  A    between atoms: _225  and  _226
REMARK   99  A    between atoms: _231  and  _233
REMARK  100  A    between atoms: _233  and  _234
REMARK  101  A    between atoms: _233  and  _236
REMARK  102  A    between atoms: _236  and  _237
REMARK  103  A    between atoms: _242  and  _243
REMARK  104  A    between atoms: _245  and  _247
REMARK  105  A    between atoms: _247  and  _248
REMARK  106  A    between atoms: _247  and  _250
REMARK  107  A    between atoms: _253  and  _255
REMARK  108  A    between atoms: _255  and  _256
REMARK  109  A    between atoms: _255  and  _258
REMARK  110  A    between atoms: _258  and  _259
REMARK  111  A    between atoms: _259  and  _260
REMARK  112  A    between atoms: _260  and  _261
REMARK  113  A    between atoms: _261  and  _262
REMARK  114  A    between atoms: _266  and  _268
REMARK  115  A    between atoms: _268  and  _269
REMARK  116  A    between atoms: _268  and  _271
REMARK  117  A    between atoms: _271  and  _272
REMARK  118  A    between atoms: _275  and  _277
REMARK  119  A    between atoms: _277  and  _278
REMARK  120  A    between atoms: _277  and  _280
REMARK  121  A    between atoms: _280  and  _281
REMARK  122  A    between atoms: _281  and  _282
REMARK  123  A    between atoms: _282  and  _283
REMARK  124  A    between atoms: _283  and  _284
REMARK                            x       y       z     vdW  Elec       q    Type
REMARK                         _______ _______ _______ _____ _____    ______ ____
ROOT
ATOM      1  O   HOH     1      27.723  34.067  43.599  0.00  0.00    +0.000 OA
ENDROOT
TORSDOF 0
REMARK  Name = ../refined-set-2016/4g0q/4g0q_pocket.pdb
REMARK  124 active torsions:
REMARK  status: ('A' for Active; 'I' for Inactive)
REMARK    1  A    between atoms: _1  and  _3
REMARK    2  A    between atoms: _3  and  _4
REMARK    3  A    between atoms: _3  and  _6
REMARK    4  A    between atoms: _6  and  _7
REMARK    5  A    between atoms: _10  and  _12
REMARK    6  A    between atoms: _12  and  _13
REMARK    7  A    between atoms: _12  and  _15
REMARK    8  A    between atoms: _15  and  _16
REMARK    9  A    between atoms: _19  and  _21
REMARK   10  A    between atoms: _21  and  _22
REMARK   11  A    between atoms: _21  and  _24
REMARK   12  A    between atoms: _27  and  _29
REMARK   13  A    between atoms: _29  and  _30
REMARK   14  A    between atoms: _29  and  _32
REMARK   15  A    between atoms: _32  and  _33
REMARK   16  A    between atoms: _37  and  _38
REMARK   17  A    between atoms: _43  and  _45
REMARK   18  A    between atoms: _45  and  _46
REMARK   19  A    between atoms: _45  and  _48
REMARK   20  A    between atoms: _48  and  _49
REMARK   21  A    between atoms: _52  and  _54
REMARK   22  A    between atoms: _54  and  _55
REMARK   23  A    between atoms: _54  and  _57
REMARK   24  A    between atoms: _57  and  _58
REMARK   25  A    between atoms: _63  and  _65
REMARK   26  A    between atoms: _65  and  _66
REMARK   27  A    between atoms: _65  and  _68
REMARK   28  A    between atoms: _68  and  _69
REMARK   29  A    between atoms: _74  and  _76
REMARK   30  A    between atoms: _76  and  _77
REMARK   31  A    between atoms: _79  and  _81
REMARK   32  A    between atoms: _81  and  _82
REMARK   33  A    between atoms: _81  and  _84
REMARK   34  A    between atoms: _84  and  _85
REMARK   35  A    between atoms: _87  and  _89
REMARK   36  A    between atoms: _89  and  _90
REMARK   37  A    between atoms: _89  and  _92
REMARK   38  A    between atoms: _92  and  _93
REMARK   39  A    between atoms: _96  and  _98
REMARK   40  A    between atoms: _98  and  _99
REMARK   41  A    between atoms: _98  and  _101
REMARK   42  A    between atoms: _101  and  _102
REMARK   43  A    between atoms: _107  and  _108
REMARK   44  A    between atoms: _110  and  _112
REMARK   45  A    between atoms: _112  and  _113
REMARK   46  A    between atoms: _115  and  _117
REMARK   47  A    between atoms: _117  and  _118
REMARK   48  A    between atoms: _117  and  _120
REMARK   49  A    between atoms: _120  and  _121
REMARK   50  A    between atoms: _124  and  _126
REMARK   51  A    between atoms: _126  and  _127
REMARK   52  A    between atoms: _126  and  _129
REMARK   53  A    between atoms: _129  and  _130
REMARK   54  A    between atoms: _130  and  _131
REMARK   55  A    between atoms: _131  and  _132
REMARK   56  A    between atoms: _132  and  _133
REMARK   57  A    between atoms: _137  and  _139
REMARK   58  A    between atoms: _139  and  _140
REMARK   59  A    between atoms: _139  and  _142
REMARK   60  A    between atoms: _142  and  _143
REMARK   61  A    between atoms: _143  and  _144
REMARK   62  A    between atoms: _147  and  _149
REMARK   63  A    between atoms: _149  and  _150
REMARK   64  A    between atoms: _149  and  _152
REMARK   65  A    between atoms: _155  and  _157
REMARK   66  A    between atoms: _157  and  _158
REMARK   67  A    between atoms: _157  and  _160
REMARK   68  A    between atoms: _160  and  _161
REMARK   69  A    between atoms: _163  and  _165
REMARK   70  A    between atoms: _165  and  _166
REMARK   71  A    between atoms: _165  and  _168
REMARK   72  A    between atoms: _168  and  _169
REMARK   73  A    between atoms: _169  and  _170
REMARK   74  A    between atoms: _175  and  _177
REMARK   75  A    between atoms: _177  and  _178
REMARK   76  A    between atoms: _177  and  _180
REMARK   77  A    between atoms: _182  and  _184
REMARK   78  A    between atoms: _184  and  _185
REMARK   79  A    between atoms: _184  and  _187
REMARK   80  A    between atoms: _189  and  _191
REMARK   81  A    between atoms: _191  and  _192
REMARK   82  A    between atoms: _191  and  _194
REMARK   83  A    between atoms: _194  and  _195
REMARK   84  A    between atoms: _198  and  _200
REMARK   85  A    between atoms: _200  and  _201
REMARK   86  A    between atoms: _200  and  _203
REMARK   87  A    between atoms: _203  and  _204
REMARK   88  A    between atoms: _207  and  _209
REMARK   89  A    between atoms: _209  and  _210
REMARK   90  A    between atoms: _209  and  _212
REMARK   91  A    between atoms: _212  and  _213
REMARK   92  A    between atoms: _213  and  _214
REMARK   93  A    between atoms: _214  and  _215
REMARK   94  A    between atoms: _215  and  _216
REMARK   95  A    between atoms: _220  and  _222
REMARK   96  A    between atoms: _222  and  _223
REMARK   97  A    between atoms: _222  and  _225
REMARK   98  A    between atoms: _225  and  _226
REMARK   99  A    between atoms: _231  and  _233
REMARK  100  A    between atoms: _233  and  _234
REMARK  101  A    between atoms: _233  and  _236
REMARK  102  A    between atoms: _236  and  _237
REMARK  103  A    between atoms: _242  and  _243
REMARK  104  A    between atoms: _245  and  _247
REMARK  105  A    between atoms: _247  and  _248
REMARK  106  A    between atoms: _247  and  _250
REMARK  107  A    between atoms: _253  and  _255
REMARK  108  A    between atoms: _255  and  _256
REMARK  109  A    between atoms: _255  and  _258
REMARK  110  A    between atoms: _258  and  _259
REMARK  111  A    between atoms: _259  and  _260
REMARK  112  A    between atoms: _260  and  _261
REMARK  113  A    between atoms: _261  and  _262
REMARK  114  A    between atoms: _266  and  _268
REMARK  115  A    between atoms: _268  and  _269
REMARK  116  A    between atoms: _268  and  _271
REMARK  117  A    between atoms: _271  and  _272
REMARK  118  A    between atoms: _275  and  _277
REMARK  119  A    between atoms: _277  and  _278
REMARK  120  A    between atoms: _277  and  _280
REMARK  121  A    between atoms: _280  and  _281
REMARK  122  A    between atoms: _281  and  _282
REMARK  123  A    between atoms: _282  and  _283
REMARK  124  A    between atoms: _283  and  _284
REMARK                            x       y       z     vdW  Elec       q    Type
REMARK                         _______ _______ _______ _____ _____    ______ ____
ROOT
ATOM      1  O   HOH     1      29.017  31.715  44.143  0.00  0.00    +0.000 OA
ENDROOT
TORSDOF 0
REMARK  Name = ../refined-set-2016/4g0q/4g0q_pocket.pdb
REMARK  124 active torsions:
REMARK  status: ('A' for Active; 'I' for Inactive)
REMARK    1  A    between atoms: _1  and  _3
REMARK    2  A    between atoms: _3  and  _4
REMARK    3  A    between atoms: _3  and  _6
REMARK    4  A    between atoms: _6  and  _7
REMARK    5  A    between atoms: _10  and  _12
REMARK    6  A    between atoms: _12  and  _13
REMARK    7  A    between atoms: _12  and  _15
REMARK    8  A    between atoms: _15  and  _16
REMARK    9  A    between atoms: _19  and  _21
REMARK   10  A    between atoms: _21  and  _22
REMARK   11  A    between atoms: _21  and  _24
REMARK   12  A    between atoms: _27  and  _29
REMARK   13  A    between atoms: _29  and  _30
REMARK   14  A    between atoms: _29  and  _32
REMARK   15  A    between atoms: _32  and  _33
REMARK   16  A    between atoms: _37  and  _38
REMARK   17  A    between atoms: _43  and  _45
REMARK   18  A    between atoms: _45  and  _46
REMARK   19  A    between atoms: _45  and  _48
REMARK   20  A    between atoms: _48  and  _49
REMARK   21  A    between atoms: _52  and  _54
REMARK   22  A    between atoms: _54  and  _55
REMARK   23  A    between atoms: _54  and  _57
REMARK   24  A    between atoms: _57  and  _58
REMARK   25  A    between atoms: _63  and  _65
REMARK   26  A    between atoms: _65  and  _66
REMARK   27  A    between atoms: _65  and  _68
REMARK   28  A    between atoms: _68  and  _69
REMARK   29  A    between atoms: _74  and  _76
REMARK   30  A    between atoms: _76  and  _77
REMARK   31  A    between atoms: _79  and  _81
REMARK   32  A    between atoms: _81  and  _82
REMARK   33  A    between atoms: _81  and  _84
REMARK   34  A    between atoms: _84  and  _85
REMARK   35  A    between atoms: _87  and  _89
REMARK   36  A    between atoms: _89  and  _90
REMARK   37  A    between atoms: _89  and  _92
REMARK   38  A    between atoms: _92  and  _93
REMARK   39  A    between atoms: _96  and  _98
REMARK   40  A    between atoms: _98  and  _99
REMARK   41  A    between atoms: _98  and  _101
REMARK   42  A    between atoms: _101  and  _102
REMARK   43  A    between atoms: _107  and  _108
REMARK   44  A    between atoms: _110  and  _112
REMARK   45  A    between atoms: _112  and  _113
REMARK   46  A    between atoms: _115  and  _117
REMARK   47  A    between atoms: _117  and  _118
REMARK   48  A    between atoms: _117  and  _120
REMARK   49  A    between atoms: _120  and  _121
REMARK   50  A    between atoms: _124  and  _126
REMARK   51  A    between atoms: _126  and  _127
REMARK   52  A    between atoms: _126  and  _129
REMARK   53  A    between atoms: _129  and  _130
REMARK   54  A    between atoms: _130  and  _131
REMARK   55  A    between atoms: _131  and  _132
REMARK   56  A    between atoms: _132  and  _133
REMARK   57  A    between atoms: _137  and  _139
REMARK   58  A    between atoms: _139  and  _140
REMARK   59  A    between atoms: _139  and  _142
REMARK   60  A    between atoms: _142  and  _143
REMARK   61  A    between atoms: _143  and  _144
REMARK   62  A    between atoms: _147  and  _149
REMARK   63  A    between atoms: _149  and  _150
REMARK   64  A    between atoms: _149  and  _152
REMARK   65  A    between atoms: _155  and  _157
REMARK   66  A    between atoms: _157  and  _158
REMARK   67  A    between atoms: _157  and  _160
REMARK   68  A    between atoms: _160  and  _161
REMARK   69  A    between atoms: _163  and  _165
REMARK   70  A    between atoms: _165  and  _166
REMARK   71  A    between atoms: _165  and  _168
REMARK   72  A    between atoms: _168  and  _169
REMARK   73  A    between atoms: _169  and  _170
REMARK   74  A    between atoms: _175  and  _177
REMARK   75  A    between atoms: _177  and  _178
REMARK   76  A    between atoms: _177  and  _180
REMARK   77  A    between atoms: _182  and  _184
REMARK   78  A    between atoms: _184  and  _185
REMARK   79  A    between atoms: _184  and  _187
REMARK   80  A    between atoms: _189  and  _191
REMARK   81  A    between atoms: _191  and  _192
REMARK   82  A    between atoms: _191  and  _194
REMARK   83  A    between atoms: _194  and  _195
REMARK   84  A    between atoms: _198  and  _200
REMARK   85  A    between atoms: _200  and  _201
REMARK   86  A    between atoms: _200  and  _203
REMARK   87  A    between atoms: _203  and  _204
REMARK   88  A    between atoms: _207  and  _209
REMARK   89  A    between atoms: _209  and  _210
REMARK   90  A    between atoms: _209  and  _212
REMARK   91  A    between atoms: _212  and  _213
REMARK   92  A    between atoms: _213  and  _214
REMARK   93  A    between atoms: _214  and  _215
REMARK   94  A    between atoms: _215  and  _216
REMARK   95  A    between atoms: _220  and  _222
REMARK   96  A    between atoms: _222  and  _223
REMARK   97  A    between atoms: _222  and  _225
REMARK   98  A    between atoms: _225  and  _226
REMARK   99  A    between atoms: _231  and  _233
REMARK  100  A    between atoms: _233  and  _234
REMARK  101  A    between atoms: _233  and  _236
REMARK  102  A    between atoms: _236  and  _237
REMARK  103  A    between atoms: _242  and  _243
REMARK  104  A    between atoms: _245  and  _247
REMARK  105  A    between atoms: _247  and  _248
REMARK  106  A    between atoms: _247  and  _250
REMARK  107  A    between atoms: _253  and  _255
REMARK  108  A    between atoms: _255  and  _256
REMARK  109  A    between atoms: _255  and  _258
REMARK  110  A    between atoms: _258  and  _259
REMARK  111  A    between atoms: _259  and  _260
REMARK  112  A    between atoms: _260  and  _261
REMARK  113  A    between atoms: _261  and  _262
REMARK  114  A    between atoms: _266  and  _268
REMARK  115  A    between atoms: _268  and  _269
REMARK  116  A    between atoms: _268  and  _271
REMARK  117  A    between atoms: _271  and  _272
REMARK  118  A    between atoms: _275  and  _277
REMARK  119  A    between atoms: _277  and  _278
REMARK  120  A    between atoms: _277  and  _280
REMARK  121  A    between atoms: _280  and  _281
REMARK  122  A    between atoms: _281  and  _282
REMARK  123  A    between atoms: _282  and  _283
REMARK  124  A    between atoms: _283  and  _284
REMARK                            x       y       z     vdW  Elec       q    Type
REMARK                         _______ _______ _______ _____ _____    ______ ____
ROOT
ATOM      1  O   HOH     1      24.865  36.474  35.528  0.00  0.00    +0.000 OA
ENDROOT
TORSDOF 0
REMARK  Name = ../refined-set-2016/4g0q/4g0q_pocket.pdb
REMARK  124 active torsions:
REMARK  status: ('A' for Active; 'I' for Inactive)
REMARK    1  A    between atoms: _1  and  _3
REMARK    2  A    between atoms: _3  and  _4
REMARK    3  A    between atoms: _3  and  _6
REMARK    4  A    between atoms: _6  and  _7
REMARK    5  A    between atoms: _10  and  _12
REMARK    6  A    between atoms: _12  and  _13
REMARK    7  A    between atoms: _12  and  _15
REMARK    8  A    between atoms: _15  and  _16
REMARK    9  A    between atoms: _19  and  _21
REMARK   10  A    between atoms: _21  and  _22
REMARK   11  A    between atoms: _21  and  _24
REMARK   12  A    between atoms: _27  and  _29
REMARK   13  A    between atoms: _29  and  _30
REMARK   14  A    between atoms: _29  and  _32
REMARK   15  A    between atoms: _32  and  _33
REMARK   16  A    between atoms: _37  and  _38
REMARK   17  A    between atoms: _43  and  _45
REMARK   18  A    between atoms: _45  and  _46
REMARK   19  A    between atoms: _45  and  _48
REMARK   20  A    between atoms: _48  and  _49
REMARK   21  A    between atoms: _52  and  _54
REMARK   22  A    between atoms: _54  and  _55
REMARK   23  A    between atoms: _54  and  _57
REMARK   24  A    between atoms: _57  and  _58
REMARK   25  A    between atoms: _63  and  _65
REMARK   26  A    between atoms: _65  and  _66
REMARK   27  A    between atoms: _65  and  _68
REMARK   28  A    between atoms: _68  and  _69
REMARK   29  A    between atoms: _74  and  _76
REMARK   30  A    between atoms: _76  and  _77
REMARK   31  A    between atoms: _79  and  _81
REMARK   32  A    between atoms: _81  and  _82
REMARK   33  A    between atoms: _81  and  _84
REMARK   34  A    between atoms: _84  and  _85
REMARK   35  A    between atoms: _87  and  _89
REMARK   36  A    between atoms: _89  and  _90
REMARK   37  A    between atoms: _89  and  _92
REMARK   38  A    between atoms: _92  and  _93
REMARK   39  A    between atoms: _96  and  _98
REMARK   40  A    between atoms: _98  and  _99
REMARK   41  A    between atoms: _98  and  _101
REMARK   42  A    between atoms: _101  and  _102
REMARK   43  A    between atoms: _107  and  _108
REMARK   44  A    between atoms: _110  and  _112
REMARK   45  A    between atoms: _112  and  _113
REMARK   46  A    between atoms: _115  and  _117
REMARK   47  A    between atoms: _117  and  _118
REMARK   48  A    between atoms: _117  and  _120
REMARK   49  A    between atoms: _120  and  _121
REMARK   50  A    between atoms: _124  and  _126
REMARK   51  A    between atoms: _126  and  _127
REMARK   52  A    between atoms: _126  and  _129
REMARK   53  A    between atoms: _129  and  _130
REMARK   54  A    between atoms: _130  and  _131
REMARK   55  A    between atoms: _131  and  _132
REMARK   56  A    between atoms: _132  and  _133
REMARK   57  A    between atoms: _137  and  _139
REMARK   58  A    between atoms: _139  and  _140
REMARK   59  A    between atoms: _139  and  _142
REMARK   60  A    between atoms: _142  and  _143
REMARK   61  A    between atoms: _143  and  _144
REMARK   62  A    between atoms: _147  and  _149
REMARK   63  A    between atoms: _149  and  _150
REMARK   64  A    between atoms: _149  and  _152
REMARK   65  A    between atoms: _155  and  _157
REMARK   66  A    between atoms: _157  and  _158
REMARK   67  A    between atoms: _157  and  _160
REMARK   68  A    between atoms: _160  and  _161
REMARK   69  A    between atoms: _163  and  _165
REMARK   70  A    between atoms: _165  and  _166
REMARK   71  A    between atoms: _165  and  _168
REMARK   72  A    between atoms: _168  and  _169
REMARK   73  A    between atoms: _169  and  _170
REMARK   74  A    between atoms: _175  and  _177
REMARK   75  A    between atoms: _177  and  _178
REMARK   76  A    between atoms: _177  and  _180
REMARK   77  A    between atoms: _182  and  _184
REMARK   78  A    between atoms: _184  and  _185
REMARK   79  A    between atoms: _184  and  _187
REMARK   80  A    between atoms: _189  and  _191
REMARK   81  A    between atoms: _191  and  _192
REMARK   82  A    between atoms: _191  and  _194
REMARK   83  A    between atoms: _194  and  _195
REMARK   84  A    between atoms: _198  and  _200
REMARK   85  A    between atoms: _200  and  _201
REMARK   86  A    between atoms: _200  and  _203
REMARK   87  A    between atoms: _203  and  _204
REMARK   88  A    between atoms: _207  and  _209
REMARK   89  A    between atoms: _209  and  _210
REMARK   90  A    between atoms: _209  and  _212
REMARK   91  A    between atoms: _212  and  _213
REMARK   92  A    between atoms: _213  and  _214
REMARK   93  A    between atoms: _214  and  _215
REMARK   94  A    between atoms: _215  and  _216
REMARK   95  A    between atoms: _220  and  _222
REMARK   96  A    between atoms: _222  and  _223
REMARK   97  A    between atoms: _222  and  _225
REMARK   98  A    between atoms: _225  and  _226
REMARK   99  A    between atoms: _231  and  _233
REMARK  100  A    between atoms: _233  and  _234
REMARK  101  A    between atoms: _233  and  _236
REMARK  102  A    between atoms: _236  and  _237
REMARK  103  A    between atoms: _242  and  _243
REMARK  104  A    between atoms: _245  and  _247
REMARK  105  A    between atoms: _247  and  _248
REMARK  106  A    between atoms: _247  and  _250
REMARK  107  A    between atoms: _253  and  _255
REMARK  108  A    between atoms: _255  and  _256
REMARK  109  A    between atoms: _255  and  _258
REMARK  110  A    between atoms: _258  and  _259
REMARK  111  A    between atoms: _259  and  _260
REMARK  112  A    between atoms: _260  and  _261
REMARK  113  A    between atoms: _261  and  _262
REMARK  114  A    between atoms: _266  and  _268
REMARK  115  A    between atoms: _268  and  _269
REMARK  116  A    between atoms: _268  and  _271
REMARK  117  A    between atoms: _271  and  _272
REMARK  118  A    between atoms: _275  and  _277
REMARK  119  A    between atoms: _277  and  _278
REMARK  120  A    between atoms: _277  and  _280
REMARK  121  A    between atoms: _280  and  _281
REMARK  122  A    between atoms: _281  and  _282
REMARK  123  A    between atoms: _282  and  _283
REMARK  124  A    between atoms: _283  and  _284
REMARK                            x       y       z     vdW  Elec       q    Type
REMARK                         _______ _______ _______ _____ _____    ______ ____
ROOT
ATOM      1  O   HOH     1      20.076  39.766  34.276  0.00  0.00    +0.000 OA
ENDROOT
TORSDOF 0
REMARK  Name = ../refined-set-2016/4g0q/4g0q_pocket.pdb
REMARK  124 active torsions:
REMARK  status: ('A' for Active; 'I' for Inactive)
REMARK    1  A    between atoms: _1  and  _3
REMARK    2  A    between atoms: _3  and  _4
REMARK    3  A    between atoms: _3  and  _6
REMARK    4  A    between atoms: _6  and  _7
REMARK    5  A    between atoms: _10  and  _12
REMARK    6  A    between atoms: _12  and  _13
REMARK    7  A    between atoms: _12  and  _15
REMARK    8  A    between atoms: _15  and  _16
REMARK    9  A    between atoms: _19  and  _21
REMARK   10  A    between atoms: _21  and  _22
REMARK   11  A    between atoms: _21  and  _24
REMARK   12  A    between atoms: _27  and  _29
REMARK   13  A    between atoms: _29  and  _30
REMARK   14  A    between atoms: _29  and  _32
REMARK   15  A    between atoms: _32  and  _33
REMARK   16  A    between atoms: _37  and  _38
REMARK   17  A    between atoms: _43  and  _45
REMARK   18  A    between atoms: _45  and  _46
REMARK   19  A    between atoms: _45  and  _48
REMARK   20  A    between atoms: _48  and  _49
REMARK   21  A    between atoms: _52  and  _54
REMARK   22  A    between atoms: _54  and  _55
REMARK   23  A    between atoms: _54  and  _57
REMARK   24  A    between atoms: _57  and  _58
REMARK   25  A    between atoms: _63  and  _65
REMARK   26  A    between atoms: _65  and  _66
REMARK   27  A    between atoms: _65  and  _68
REMARK   28  A    between atoms: _68  and  _69
REMARK   29  A    between atoms: _74  and  _76
REMARK   30  A    between atoms: _76  and  _77
REMARK   31  A    between atoms: _79  and  _81
REMARK   32  A    between atoms: _81  and  _82
REMARK   33  A    between atoms: _81  and  _84
REMARK   34  A    between atoms: _84  and  _85
REMARK   35  A    between atoms: _87  and  _89
REMARK   36  A    between atoms: _89  and  _90
REMARK   37  A    between atoms: _89  and  _92
REMARK   38  A    between atoms: _92  and  _93
REMARK   39  A    between atoms: _96  and  _98
REMARK   40  A    between atoms: _98  and  _99
REMARK   41  A    between atoms: _98  and  _101
REMARK   42  A    between atoms: _101  and  _102
REMARK   43  A    between atoms: _107  and  _108
REMARK   44  A    between atoms: _110  and  _112
REMARK   45  A    between atoms: _112  and  _113
REMARK   46  A    between atoms: _115  and  _117
REMARK   47  A    between atoms: _117  and  _118
REMARK   48  A    between atoms: _117  and  _120
REMARK   49  A    between atoms: _120  and  _121
REMARK   50  A    between atoms: _124  and  _126
REMARK   51  A    between atoms: _126  and  _127
REMARK   52  A    between atoms: _126  and  _129
REMARK   53  A    between atoms: _129  and  _130
REMARK   54  A    between atoms: _130  and  _131
REMARK   55  A    between atoms: _131  and  _132
REMARK   56  A    between atoms: _132  and  _133
REMARK   57  A    between atoms: _137  and  _139
REMARK   58  A    between atoms: _139  and  _140
REMARK   59  A    between atoms: _139  and  _142
REMARK   60  A    between atoms: _142  and  _143
REMARK   61  A    between atoms: _143  and  _144
REMARK   62  A    between atoms: _147  and  _149
REMARK   63  A    between atoms: _149  and  _150
REMARK   64  A    between atoms: _149  and  _152
REMARK   65  A    between atoms: _155  and  _157
REMARK   66  A    between atoms: _157  and  _158
REMARK   67  A    between atoms: _157  and  _160
REMARK   68  A    between atoms: _160  and  _161
REMARK   69  A    between atoms: _163  and  _165
REMARK   70  A    between atoms: _165  and  _166
REMARK   71  A    between atoms: _165  and  _168
REMARK   72  A    between atoms: _168  and  _169
REMARK   73  A    between atoms: _169  and  _170
REMARK   74  A    between atoms: _175  and  _177
REMARK   75  A    between atoms: _177  and  _178
REMARK   76  A    between atoms: _177  and  _180
REMARK   77  A    between atoms: _182  and  _184
REMARK   78  A    between atoms: _184  and  _185
REMARK   79  A    between atoms: _184  and  _187
REMARK   80  A    between atoms: _189  and  _191
REMARK   81  A    between atoms: _191  and  _192
REMARK   82  A    between atoms: _191  and  _194
REMARK   83  A    between atoms: _194  and  _195
REMARK   84  A    between atoms: _198  and  _200
REMARK   85  A    between atoms: _200  and  _201
REMARK   86  A    between atoms: _200  and  _203
REMARK   87  A    between atoms: _203  and  _204
REMARK   88  A    between atoms: _207  and  _209
REMARK   89  A    between atoms: _209  and  _210
REMARK   90  A    between atoms: _209  and  _212
REMARK   91  A    between atoms: _212  and  _213
REMARK   92  A    between atoms: _213  and  _214
REMARK   93  A    between atoms: _214  and  _215
REMARK   94  A    between atoms: _215  and  _216
REMARK   95  A    between atoms: _220  and  _222
REMARK   96  A    between atoms: _222  and  _223
REMARK   97  A    between atoms: _222  and  _225
REMARK   98  A    between atoms: _225  and  _226
REMARK   99  A    between atoms: _231  and  _233
REMARK  100  A    between atoms: _233  and  _234
REMARK  101  A    between atoms: _233  and  _236
REMARK  102  A    between atoms: _236  and  _237
REMARK  103  A    between atoms: _242  and  _243
REMARK  104  A    between atoms: _245  and  _247
REMARK  105  A    between atoms: _247  and  _248
REMARK  106  A    between atoms: _247  and  _250
REMARK  107  A    between atoms: _253  and  _255
REMARK  108  A    between atoms: _255  and  _256
REMARK  109  A    between atoms: _255  and  _258
REMARK  110  A    between atoms: _258  and  _259
REMARK  111  A    between atoms: _259  and  _260
REMARK  112  A    between atoms: _260  and  _261
REMARK  113  A    between atoms: _261  and  _262
REMARK  114  A    between atoms: _266  and  _268
REMARK  115  A    between atoms: _268  and  _269
REMARK  116  A    between atoms: _268  and  _271
REMARK  117  A    between atoms: _271  and  _272
REMARK  118  A    between atoms: _275  and  _277
REMARK  119  A    between atoms: _277  and  _278
REMARK  120  A    between atoms: _277  and  _280
REMARK  121  A    between atoms: _280  and  _281
REMARK  122  A    between atoms: _281  and  _282
REMARK  123  A    between atoms: _282  and  _283
REMARK  124  A    between atoms: _283  and  _284
REMARK                            x       y       z     vdW  Elec       q    Type
REMARK                         _______ _______ _______ _____ _____    ______ ____
ROOT
ATOM      1  O   HOH     1      22.147  36.462  35.291  0.00  0.00    +0.000 OA
ENDROOT
TORSDOF 0
REMARK  Name = ../refined-set-2016/4g0q/4g0q_pocket.pdb
REMARK  124 active torsions:
REMARK  status: ('A' for Active; 'I' for Inactive)
REMARK    1  A    between atoms: _1  and  _3
REMARK    2  A    between atoms: _3  and  _4
REMARK    3  A    between atoms: _3  and  _6
REMARK    4  A    between atoms: _6  and  _7
REMARK    5  A    between atoms: _10  and  _12
REMARK    6  A    between atoms: _12  and  _13
REMARK    7  A    between atoms: _12  and  _15
REMARK    8  A    between atoms: _15  and  _16
REMARK    9  A    between atoms: _19  and  _21
REMARK   10  A    between atoms: _21  and  _22
REMARK   11  A    between atoms: _21  and  _24
REMARK   12  A    between atoms: _27  and  _29
REMARK   13  A    between atoms: _29  and  _30
REMARK   14  A    between atoms: _29  and  _32
REMARK   15  A    between atoms: _32  and  _33
REMARK   16  A    between atoms: _37  and  _38
REMARK   17  A    between atoms: _43  and  _45
REMARK   18  A    between atoms: _45  and  _46
REMARK   19  A    between atoms: _45  and  _48
REMARK   20  A    between atoms: _48  and  _49
REMARK   21  A    between atoms: _52  and  _54
REMARK   22  A    between atoms: _54  and  _55
REMARK   23  A    between atoms: _54  and  _57
REMARK   24  A    between atoms: _57  and  _58
REMARK   25  A    between atoms: _63  and  _65
REMARK   26  A    between atoms: _65  and  _66
REMARK   27  A    between atoms: _65  and  _68
REMARK   28  A    between atoms: _68  and  _69
REMARK   29  A    between atoms: _74  and  _76
REMARK   30  A    between atoms: _76  and  _77
REMARK   31  A    between atoms: _79  and  _81
REMARK   32  A    between atoms: _81  and  _82
REMARK   33  A    between atoms: _81  and  _84
REMARK   34  A    between atoms: _84  and  _85
REMARK   35  A    between atoms: _87  and  _89
REMARK   36  A    between atoms: _89  and  _90
REMARK   37  A    between atoms: _89  and  _92
REMARK   38  A    between atoms: _92  and  _93
REMARK   39  A    between atoms: _96  and  _98
REMARK   40  A    between atoms: _98  and  _99
REMARK   41  A    between atoms: _98  and  _101
REMARK   42  A    between atoms: _101  and  _102
REMARK   43  A    between atoms: _107  and  _108
REMARK   44  A    between atoms: _110  and  _112
REMARK   45  A    between atoms: _112  and  _113
REMARK   46  A    between atoms: _115  and  _117
REMARK   47  A    between atoms: _117  and  _118
REMARK   48  A    between atoms: _117  and  _120
REMARK   49  A    between atoms: _120  and  _121
REMARK   50  A    between atoms: _124  and  _126
REMARK   51  A    between atoms: _126  and  _127
REMARK   52  A    between atoms: _126  and  _129
REMARK   53  A    between atoms: _129  and  _130
REMARK   54  A    between atoms: _130  and  _131
REMARK   55  A    between atoms: _131  and  _132
REMARK   56  A    between atoms: _132  and  _133
REMARK   57  A    between atoms: _137  and  _139
REMARK   58  A    between atoms: _139  and  _140
REMARK   59  A    between atoms: _139  and  _142
REMARK   60  A    between atoms: _142  and  _143
REMARK   61  A    between atoms: _143  and  _144
REMARK   62  A    between atoms: _147  and  _149
REMARK   63  A    between atoms: _149  and  _150
REMARK   64  A    between atoms: _149  and  _152
REMARK   65  A    between atoms: _155  and  _157
REMARK   66  A    between atoms: _157  and  _158
REMARK   67  A    between atoms: _157  and  _160
REMARK   68  A    between atoms: _160  and  _161
REMARK   69  A    between atoms: _163  and  _165
REMARK   70  A    between atoms: _165  and  _166
REMARK   71  A    between atoms: _165  and  _168
REMARK   72  A    between atoms: _168  and  _169
REMARK   73  A    between atoms: _169  and  _170
REMARK   74  A    between atoms: _175  and  _177
REMARK   75  A    between atoms: _177  and  _178
REMARK   76  A    between atoms: _177  and  _180
REMARK   77  A    between atoms: _182  and  _184
REMARK   78  A    between atoms: _184  and  _185
REMARK   79  A    between atoms: _184  and  _187
REMARK   80  A    between atoms: _189  and  _191
REMARK   81  A    between atoms: _191  and  _192
REMARK   82  A    between atoms: _191  and  _194
REMARK   83  A    between atoms: _194  and  _195
REMARK   84  A    between atoms: _198  and  _200
REMARK   85  A    between atoms: _200  and  _201
REMARK   86  A    between atoms: _200  and  _203
REMARK   87  A    between atoms: _203  and  _204
REMARK   88  A    between atoms: _207  and  _209
REMARK   89  A    between atoms: _209  and  _210
REMARK   90  A    between atoms: _209  and  _212
REMARK   91  A    between atoms: _212  and  _213
REMARK   92  A    between atoms: _213  and  _214
REMARK   93  A    between atoms: _214  and  _215
REMARK   94  A    between atoms: _215  and  _216
REMARK   95  A    between atoms: _220  and  _222
REMARK   96  A    between atoms: _222  and  _223
REMARK   97  A    between atoms: _222  and  _225
REMARK   98  A    between atoms: _225  and  _226
REMARK   99  A    between atoms: _231  and  _233
REMARK  100  A    between atoms: _233  and  _234
REMARK  101  A    between atoms: _233  and  _236
REMARK  102  A    between atoms: _236  and  _237
REMARK  103  A    between atoms: _242  and  _243
REMARK  104  A    between atoms: _245  and  _247
REMARK  105  A    between atoms: _247  and  _248
REMARK  106  A    between atoms: _247  and  _250
REMARK  107  A    between atoms: _253  and  _255
REMARK  108  A    between atoms: _255  and  _256
REMARK  109  A    between atoms: _255  and  _258
REMARK  110  A    between atoms: _258  and  _259
REMARK  111  A    between atoms: _259  and  _260
REMARK  112  A    between atoms: _260  and  _261
REMARK  113  A    between atoms: _261  and  _262
REMARK  114  A    between atoms: _266  and  _268
REMARK  115  A    between atoms: _268  and  _269
REMARK  116  A    between atoms: _268  and  _271
REMARK  117  A    between atoms: _271  and  _272
REMARK  118  A    between atoms: _275  and  _277
REMARK  119  A    between atoms: _277  and  _278
REMARK  120  A    between atoms: _277  and  _280
REMARK  121  A    between atoms: _280  and  _281
REMARK  122  A    between atoms: _281  and  _282
REMARK  123  A    between atoms: _282  and  _283
REMARK  124  A    between atoms: _283  and  _284
REMARK                            x       y       z     vdW  Elec       q    Type
REMARK                         _______ _______ _______ _____ _____    ______ ____
ROOT
ATOM      1  O   HOH     1      19.896  37.894  36.078  0.00  0.00    +0.000 OA
ENDROOT
TORSDOF 0
REMARK  Name = ../refined-set-2016/4g0q/4g0q_pocket.pdb
REMARK  124 active torsions:
REMARK  status: ('A' for Active; 'I' for Inactive)
REMARK    1  A    between atoms: _1  and  _3
REMARK    2  A    between atoms: _3  and  _4
REMARK    3  A    between atoms: _3  and  _6
REMARK    4  A    between atoms: _6  and  _7
REMARK    5  A    between atoms: _10  and  _12
REMARK    6  A    between atoms: _12  and  _13
REMARK    7  A    between atoms: _12  and  _15
REMARK    8  A    between atoms: _15  and  _16
REMARK    9  A    between atoms: _19  and  _21
REMARK   10  A    between atoms: _21  and  _22
REMARK   11  A    between atoms: _21  and  _24
REMARK   12  A    between atoms: _27  and  _29
REMARK   13  A    between atoms: _29  and  _30
REMARK   14  A    between atoms: _29  and  _32
REMARK   15  A    between atoms: _32  and  _33
REMARK   16  A    between atoms: _37  and  _38
REMARK   17  A    between atoms: _43  and  _45
REMARK   18  A    between atoms: _45  and  _46
REMARK   19  A    between atoms: _45  and  _48
REMARK   20  A    between atoms: _48  and  _49
REMARK   21  A    between atoms: _52  and  _54
REMARK   22  A    between atoms: _54  and  _55
REMARK   23  A    between atoms: _54  and  _57
REMARK   24  A    between atoms: _57  and  _58
REMARK   25  A    between atoms: _63  and  _65
REMARK   26  A    between atoms: _65  and  _66
REMARK   27  A    between atoms: _65  and  _68
REMARK   28  A    between atoms: _68  and  _69
REMARK   29  A    between atoms: _74  and  _76
REMARK   30  A    between atoms: _76  and  _77
REMARK   31  A    between atoms: _79  and  _81
REMARK   32  A    between atoms: _81  and  _82
REMARK   33  A    between atoms: _81  and  _84
REMARK   34  A    between atoms: _84  and  _85
REMARK   35  A    between atoms: _87  and  _89
REMARK   36  A    between atoms: _89  and  _90
REMARK   37  A    between atoms: _89  and  _92
REMARK   38  A    between atoms: _92  and  _93
REMARK   39  A    between atoms: _96  and  _98
REMARK   40  A    between atoms: _98  and  _99
REMARK   41  A    between atoms: _98  and  _101
REMARK   42  A    between atoms: _101  and  _102
REMARK   43  A    between atoms: _107  and  _108
REMARK   44  A    between atoms: _110  and  _112
REMARK   45  A    between atoms: _112  and  _113
REMARK   46  A    between atoms: _115  and  _117
REMARK   47  A    between atoms: _117  and  _118
REMARK   48  A    between atoms: _117  and  _120
REMARK   49  A    between atoms: _120  and  _121
REMARK   50  A    between atoms: _124  and  _126
REMARK   51  A    between atoms: _126  and  _127
REMARK   52  A    between atoms: _126  and  _129
REMARK   53  A    between atoms: _129  and  _130
REMARK   54  A    between atoms: _130  and  _131
REMARK   55  A    between atoms: _131  and  _132
REMARK   56  A    between atoms: _132  and  _133
REMARK   57  A    between atoms: _137  and  _139
REMARK   58  A    between atoms: _139  and  _140
REMARK   59  A    between atoms: _139  and  _142
REMARK   60  A    between atoms: _142  and  _143
REMARK   61  A    between atoms: _143  and  _144
REMARK   62  A    between atoms: _147  and  _149
REMARK   63  A    between atoms: _149  and  _150
REMARK   64  A    between atoms: _149  and  _152
REMARK   65  A    between atoms: _155  and  _157
REMARK   66  A    between atoms: _157  and  _158
REMARK   67  A    between atoms: _157  and  _160
REMARK   68  A    between atoms: _160  and  _161
REMARK   69  A    between atoms: _163  and  _165
REMARK   70  A    between atoms: _165  and  _166
REMARK   71  A    between atoms: _165  and  _168
REMARK   72  A    between atoms: _168  and  _169
REMARK   73  A    between atoms: _169  and  _170
REMARK   74  A    between atoms: _175  and  _177
REMARK   75  A    between atoms: _177  and  _178
REMARK   76  A    between atoms: _177  and  _180
REMARK   77  A    between atoms: _182  and  _184
REMARK   78  A    between atoms: _184  and  _185
REMARK   79  A    between atoms: _184  and  _187
REMARK   80  A    between atoms: _189  and  _191
REMARK   81  A    between atoms: _191  and  _192
REMARK   82  A    between atoms: _191  and  _194
REMARK   83  A    between atoms: _194  and  _195
REMARK   84  A    between atoms: _198  and  _200
REMARK   85  A    between atoms: _200  and  _201
REMARK   86  A    between atoms: _200  and  _203
REMARK   87  A    between atoms: _203  and  _204
REMARK   88  A    between atoms: _207  and  _209
REMARK   89  A    between atoms: _209  and  _210
REMARK   90  A    between atoms: _209  and  _212
REMARK   91  A    between atoms: _212  and  _213
REMARK   92  A    between atoms: _213  and  _214
REMARK   93  A    between atoms: _214  and  _215
REMARK   94  A    between atoms: _215  and  _216
REMARK   95  A    between atoms: _220  and  _222
REMARK   96  A    between atoms: _222  and  _223
REMARK   97  A    between atoms: _222  and  _225
REMARK   98  A    between atoms: _225  and  _226
REMARK   99  A    between atoms: _231  and  _233
REMARK  100  A    between atoms: _233  and  _234
REMARK  101  A    between atoms: _233  and  _236
REMARK  102  A    between atoms: _236  and  _237
REMARK  103  A    between atoms: _242  and  _243
REMARK  104  A    between atoms: _245  and  _247
REMARK  105  A    between atoms: _247  and  _248
REMARK  106  A    between atoms: _247  and  _250
REMARK  107  A    between atoms: _253  and  _255
REMARK  108  A    between atoms: _255  and  _256
REMARK  109  A    between atoms: _255  and  _258
REMARK  110  A    between atoms: _258  and  _259
REMARK  111  A    between atoms: _259  and  _260
REMARK  112  A    between atoms: _260  and  _261
REMARK  113  A    between atoms: _261  and  _262
REMARK  114  A    between atoms: _266  and  _268
REMARK  115  A    between atoms: _268  and  _269
REMARK  116  A    between atoms: _268  and  _271
REMARK  117  A    between atoms: _271  and  _272
REMARK  118  A    between atoms: _275  and  _277
REMARK  119  A    between atoms: _277  and  _278
REMARK  120  A    between atoms: _277  and  _280
REMARK  121  A    between atoms: _280  and  _281
REMARK  122  A    between atoms: _281  and  _282
REMARK  123  A    between atoms: _282  and  _283
REMARK  124  A    between atoms: _283  and  _284
REMARK                            x       y       z     vdW  Elec       q    Type
REMARK                         _______ _______ _______ _____ _____    ______ ____
ROOT
ATOM      1  O   HOH     1      29.850  33.268  35.982  0.00  0.00    +0.000 OA
ENDROOT
TORSDOF 0
REMARK  Name = ../refined-set-2016/4g0q/4g0q_pocket.pdb
REMARK  124 active torsions:
REMARK  status: ('A' for Active; 'I' for Inactive)
REMARK    1  A    between atoms: _1  and  _3
REMARK    2  A    between atoms: _3  and  _4
REMARK    3  A    between atoms: _3  and  _6
REMARK    4  A    between atoms: _6  and  _7
REMARK    5  A    between atoms: _10  and  _12
REMARK    6  A    between atoms: _12  and  _13
REMARK    7  A    between atoms: _12  and  _15
REMARK    8  A    between atoms: _15  and  _16
REMARK    9  A    between atoms: _19  and  _21
REMARK   10  A    between atoms: _21  and  _22
REMARK   11  A    between atoms: _21  and  _24
REMARK   12  A    between atoms: _27  and  _29
REMARK   13  A    between atoms: _29  and  _30
REMARK   14  A    between atoms: _29  and  _32
REMARK   15  A    between atoms: _32  and  _33
REMARK   16  A    between atoms: _37  and  _38
REMARK   17  A    between atoms: _43  and  _45
REMARK   18  A    between atoms: _45  and  _46
REMARK   19  A    between atoms: _45  and  _48
REMARK   20  A    between atoms: _48  and  _49
REMARK   21  A    between atoms: _52  and  _54
REMARK   22  A    between atoms: _54  and  _55
REMARK   23  A    between atoms: _54  and  _57
REMARK   24  A    between atoms: _57  and  _58
REMARK   25  A    between atoms: _63  and  _65
REMARK   26  A    between atoms: _65  and  _66
REMARK   27  A    between atoms: _65  and  _68
REMARK   28  A    between atoms: _68  and  _69
REMARK   29  A    between atoms: _74  and  _76
REMARK   30  A    between atoms: _76  and  _77
REMARK   31  A    between atoms: _79  and  _81
REMARK   32  A    between atoms: _81  and  _82
REMARK   33  A    between atoms: _81  and  _84
REMARK   34  A    between atoms: _84  and  _85
REMARK   35  A    between atoms: _87  and  _89
REMARK   36  A    between atoms: _89  and  _90
REMARK   37  A    between atoms: _89  and  _92
REMARK   38  A    between atoms: _92  and  _93
REMARK   39  A    between atoms: _96  and  _98
REMARK   40  A    between atoms: _98  and  _99
REMARK   41  A    between atoms: _98  and  _101
REMARK   42  A    between atoms: _101  and  _102
REMARK   43  A    between atoms: _107  and  _108
REMARK   44  A    between atoms: _110  and  _112
REMARK   45  A    between atoms: _112  and  _113
REMARK   46  A    between atoms: _115  and  _117
REMARK   47  A    between atoms: _117  and  _118
REMARK   48  A    between atoms: _117  and  _120
REMARK   49  A    between atoms: _120  and  _121
REMARK   50  A    between atoms: _124  and  _126
REMARK   51  A    between atoms: _126  and  _127
REMARK   52  A    between atoms: _126  and  _129
REMARK   53  A    between atoms: _129  and  _130
REMARK   54  A    between atoms: _130  and  _131
REMARK   55  A    between atoms: _131  and  _132
REMARK   56  A    between atoms: _132  and  _133
REMARK   57  A    between atoms: _137  and  _139
REMARK   58  A    between atoms: _139  and  _140
REMARK   59  A    between atoms: _139  and  _142
REMARK   60  A    between atoms: _142  and  _143
REMARK   61  A    between atoms: _143  and  _144
REMARK   62  A    between atoms: _147  and  _149
REMARK   63  A    between atoms: _149  and  _150
REMARK   64  A    between atoms: _149  and  _152
REMARK   65  A    between atoms: _155  and  _157
REMARK   66  A    between atoms: _157  and  _158
REMARK   67  A    between atoms: _157  and  _160
REMARK   68  A    between atoms: _160  and  _161
REMARK   69  A    between atoms: _163  and  _165
REMARK   70  A    between atoms: _165  and  _166
REMARK   71  A    between atoms: _165  and  _168
REMARK   72  A    between atoms: _168  and  _169
REMARK   73  A    between atoms: _169  and  _170
REMARK   74  A    between atoms: _175  and  _177
REMARK   75  A    between atoms: _177  and  _178
REMARK   76  A    between atoms: _177  and  _180
REMARK   77  A    between atoms: _182  and  _184
REMARK   78  A    between atoms: _184  and  _185
REMARK   79  A    between atoms: _184  and  _187
REMARK   80  A    between atoms: _189  and  _191
REMARK   81  A    between atoms: _191  and  _192
REMARK   82  A    between atoms: _191  and  _194
REMARK   83  A    between atoms: _194  and  _195
REMARK   84  A    between atoms: _198  and  _200
REMARK   85  A    between atoms: _200  and  _201
REMARK   86  A    between atoms: _200  and  _203
REMARK   87  A    between atoms: _203  and  _204
REMARK   88  A    between atoms: _207  and  _209
REMARK   89  A    between atoms: _209  and  _210
REMARK   90  A    between atoms: _209  and  _212
REMARK   91  A    between atoms: _212  and  _213
REMARK   92  A    between atoms: _213  and  _214
REMARK   93  A    between atoms: _214  and  _215
REMARK   94  A    between atoms: _215  and  _216
REMARK   95  A    between atoms: _220  and  _222
REMARK   96  A    between atoms: _222  and  _223
REMARK   97  A    between atoms: _222  and  _225
REMARK   98  A    between atoms: _225  and  _226
REMARK   99  A    between atoms: _231  and  _233
REMARK  100  A    between atoms: _233  and  _234
REMARK  101  A    between atoms: _233  and  _236
REMARK  102  A    between atoms: _236  and  _237
REMARK  103  A    between atoms: _242  and  _243
REMARK  104  A    between atoms: _245  and  _247
REMARK  105  A    between atoms: _247  and  _248
REMARK  106  A    between atoms: _247  and  _250
REMARK  107  A    between atoms: _253  and  _255
REMARK  108  A    between atoms: _255  and  _256
REMARK  109  A    between atoms: _255  and  _258
REMARK  110  A    between atoms: _258  and  _259
REMARK  111  A    between atoms: _259  and  _260
REMARK  112  A    between atoms: _260  and  _261
REMARK  113  A    between atoms: _261  and  _262
REMARK  114  A    between atoms: _266  and  _268
REMARK  115  A    between atoms: _268  and  _269
REMARK  116  A    between atoms: _268  and  _271
REMARK  117  A    between atoms: _271  and  _272
REMARK  118  A    between atoms: _275  and  _277
REMARK  119  A    between atoms: _277  and  _278
REMARK  120  A    between atoms: _277  and  _280
REMARK  121  A    between atoms: _280  and  _281
REMARK  122  A    between atoms: _281  and  _282
REMARK  123  A    between atoms: _282  and  _283
REMARK  124  A    between atoms: _283  and  _284
REMARK                            x       y       z     vdW  Elec       q    Type
REMARK                         _______ _______ _______ _____ _____    ______ ____
ROOT
ATOM      1  O   HOH     1      22.304  24.085  30.192  0.00  0.00    +0.000 OA
ENDROOT
TORSDOF 0
REMARK  Name = ../refined-set-2016/4g0q/4g0q_pocket.pdb
REMARK  124 active torsions:
REMARK  status: ('A' for Active; 'I' for Inactive)
REMARK    1  A    between atoms: _1  and  _3
REMARK    2  A    between atoms: _3  and  _4
REMARK    3  A    between atoms: _3  and  _6
REMARK    4  A    between atoms: _6  and  _7
REMARK    5  A    between atoms: _10  and  _12
REMARK    6  A    between atoms: _12  and  _13
REMARK    7  A    between atoms: _12  and  _15
REMARK    8  A    between atoms: _15  and  _16
REMARK    9  A    between atoms: _19  and  _21
REMARK   10  A    between atoms: _21  and  _22
REMARK   11  A    between atoms: _21  and  _24
REMARK   12  A    between atoms: _27  and  _29
REMARK   13  A    between atoms: _29  and  _30
REMARK   14  A    between atoms: _29  and  _32
REMARK   15  A    between atoms: _32  and  _33
REMARK   16  A    between atoms: _37  and  _38
REMARK   17  A    between atoms: _43  and  _45
REMARK   18  A    between atoms: _45  and  _46
REMARK   19  A    between atoms: _45  and  _48
REMARK   20  A    between atoms: _48  and  _49
REMARK   21  A    between atoms: _52  and  _54
REMARK   22  A    between atoms: _54  and  _55
REMARK   23  A    between atoms: _54  and  _57
REMARK   24  A    between atoms: _57  and  _58
REMARK   25  A    between atoms: _63  and  _65
REMARK   26  A    between atoms: _65  and  _66
REMARK   27  A    between atoms: _65  and  _68
REMARK   28  A    between atoms: _68  and  _69
REMARK   29  A    between atoms: _74  and  _76
REMARK   30  A    between atoms: _76  and  _77
REMARK   31  A    between atoms: _79  and  _81
REMARK   32  A    between atoms: _81  and  _82
REMARK   33  A    between atoms: _81  and  _84
REMARK   34  A    between atoms: _84  and  _85
REMARK   35  A    between atoms: _87  and  _89
REMARK   36  A    between atoms: _89  and  _90
REMARK   37  A    between atoms: _89  and  _92
REMARK   38  A    between atoms: _92  and  _93
REMARK   39  A    between atoms: _96  and  _98
REMARK   40  A    between atoms: _98  and  _99
REMARK   41  A    between atoms: _98  and  _101
REMARK   42  A    between atoms: _101  and  _102
REMARK   43  A    between atoms: _107  and  _108
REMARK   44  A    between atoms: _110  and  _112
REMARK   45  A    between atoms: _112  and  _113
REMARK   46  A    between atoms: _115  and  _117
REMARK   47  A    between atoms: _117  and  _118
REMARK   48  A    between atoms: _117  and  _120
REMARK   49  A    between atoms: _120  and  _121
REMARK   50  A    between atoms: _124  and  _126
REMARK   51  A    between atoms: _126  and  _127
REMARK   52  A    between atoms: _126  and  _129
REMARK   53  A    between atoms: _129  and  _130
REMARK   54  A    between atoms: _130  and  _131
REMARK   55  A    between atoms: _131  and  _132
REMARK   56  A    between atoms: _132  and  _133
REMARK   57  A    between atoms: _137  and  _139
REMARK   58  A    between atoms: _139  and  _140
REMARK   59  A    between atoms: _139  and  _142
REMARK   60  A    between atoms: _142  and  _143
REMARK   61  A    between atoms: _143  and  _144
REMARK   62  A    between atoms: _147  and  _149
REMARK   63  A    between atoms: _149  and  _150
REMARK   64  A    between atoms: _149  and  _152
REMARK   65  A    between atoms: _155  and  _157
REMARK   66  A    between atoms: _157  and  _158
REMARK   67  A    between atoms: _157  and  _160
REMARK   68  A    between atoms: _160  and  _161
REMARK   69  A    between atoms: _163  and  _165
REMARK   70  A    between atoms: _165  and  _166
REMARK   71  A    between atoms: _165  and  _168
REMARK   72  A    between atoms: _168  and  _169
REMARK   73  A    between atoms: _169  and  _170
REMARK   74  A    between atoms: _175  and  _177
REMARK   75  A    between atoms: _177  and  _178
REMARK   76  A    between atoms: _177  and  _180
REMARK   77  A    between atoms: _182  and  _184
REMARK   78  A    between atoms: _184  and  _185
REMARK   79  A    between atoms: _184  and  _187
REMARK   80  A    between atoms: _189  and  _191
REMARK   81  A    between atoms: _191  and  _192
REMARK   82  A    between atoms: _191  and  _194
REMARK   83  A    between atoms: _194  and  _195
REMARK   84  A    between atoms: _198  and  _200
REMARK   85  A    between atoms: _200  and  _201
REMARK   86  A    between atoms: _200  and  _203
REMARK   87  A    between atoms: _203  and  _204
REMARK   88  A    between atoms: _207  and  _209
REMARK   89  A    between atoms: _209  and  _210
REMARK   90  A    between atoms: _209  and  _212
REMARK   91  A    between atoms: _212  and  _213
REMARK   92  A    between atoms: _213  and  _214
REMARK   93  A    between atoms: _214  and  _215
REMARK   94  A    between atoms: _215  and  _216
REMARK   95  A    between atoms: _220  and  _222
REMARK   96  A    between atoms: _222  and  _223
REMARK   97  A    between atoms: _222  and  _225
REMARK   98  A    between atoms: _225  and  _226
REMARK   99  A    between atoms: _231  and  _233
REMARK  100  A    between atoms: _233  and  _234
REMARK  101  A    between atoms: _233  and  _236
REMARK  102  A    between atoms: _236  and  _237
REMARK  103  A    between atoms: _242  and  _243
REMARK  104  A    between atoms: _245  and  _247
REMARK  105  A    between atoms: _247  and  _248
REMARK  106  A    between atoms: _247  and  _250
REMARK  107  A    between atoms: _253  and  _255
REMARK  108  A    between atoms: _255  and  _256
REMARK  109  A    between atoms: _255  and  _258
REMARK  110  A    between atoms: _258  and  _259
REMARK  111  A    between atoms: _259  and  _260
REMARK  112  A    between atoms: _260  and  _261
REMARK  113  A    between atoms: _261  and  _262
REMARK  114  A    between atoms: _266  and  _268
REMARK  115  A    between atoms: _268  and  _269
REMARK  116  A    between atoms: _268  and  _271
REMARK  117  A    between atoms: _271  and  _272
REMARK  118  A    between atoms: _275  and  _277
REMARK  119  A    between atoms: _277  and  _278
REMARK  120  A    between atoms: _277  and  _280
REMARK  121  A    between atoms: _280  and  _281
REMARK  122  A    between atoms: _281  and  _282
REMARK  123  A    between atoms: _282  and  _283
REMARK  124  A    between atoms: _283  and  _284
REMARK                            x       y       z     vdW  Elec       q    Type
REMARK                         _______ _______ _______ _____ _____    ______ ____
ROOT
ATOM      1  O   HOH     1      28.401  42.966  38.054  0.00  0.00    +0.000 OA
ENDROOT
TORSDOF 0
REMARK  Name = ../refined-set-2016/4g0q/4g0q_pocket.pdb
REMARK  124 active torsions:
REMARK  status: ('A' for Active; 'I' for Inactive)
REMARK    1  A    between atoms: _1  and  _3
REMARK    2  A    between atoms: _3  and  _4
REMARK    3  A    between atoms: _3  and  _6
REMARK    4  A    between atoms: _6  and  _7
REMARK    5  A    between atoms: _10  and  _12
REMARK    6  A    between atoms: _12  and  _13
REMARK    7  A    between atoms: _12  and  _15
REMARK    8  A    between atoms: _15  and  _16
REMARK    9  A    between atoms: _19  and  _21
REMARK   10  A    between atoms: _21  and  _22
REMARK   11  A    between atoms: _21  and  _24
REMARK   12  A    between atoms: _27  and  _29
REMARK   13  A    between atoms: _29  and  _30
REMARK   14  A    between atoms: _29  and  _32
REMARK   15  A    between atoms: _32  and  _33
REMARK   16  A    between atoms: _37  and  _38
REMARK   17  A    between atoms: _43  and  _45
REMARK   18  A    between atoms: _45  and  _46
REMARK   19  A    between atoms: _45  and  _48
REMARK   20  A    between atoms: _48  and  _49
REMARK   21  A    between atoms: _52  and  _54
REMARK   22  A    between atoms: _54  and  _55
REMARK   23  A    between atoms: _54  and  _57
REMARK   24  A    between atoms: _57  and  _58
REMARK   25  A    between atoms: _63  and  _65
REMARK   26  A    between atoms: _65  and  _66
REMARK   27  A    between atoms: _65  and  _68
REMARK   28  A    between atoms: _68  and  _69
REMARK   29  A    between atoms: _74  and  _76
REMARK   30  A    between atoms: _76  and  _77
REMARK   31  A    between atoms: _79  and  _81
REMARK   32  A    between atoms: _81  and  _82
REMARK   33  A    between atoms: _81  and  _84
REMARK   34  A    between atoms: _84  and  _85
REMARK   35  A    between atoms: _87  and  _89
REMARK   36  A    between atoms: _89  and  _90
REMARK   37  A    between atoms: _89  and  _92
REMARK   38  A    between atoms: _92  and  _93
REMARK   39  A    between atoms: _96  and  _98
REMARK   40  A    between atoms: _98  and  _99
REMARK   41  A    between atoms: _98  and  _101
REMARK   42  A    between atoms: _101  and  _102
REMARK   43  A    between atoms: _107  and  _108
REMARK   44  A    between atoms: _110  and  _112
REMARK   45  A    between atoms: _112  and  _113
REMARK   46  A    between atoms: _115  and  _117
REMARK   47  A    between atoms: _117  and  _118
REMARK   48  A    between atoms: _117  and  _120
REMARK   49  A    between atoms: _120  and  _121
REMARK   50  A    between atoms: _124  and  _126
REMARK   51  A    between atoms: _126  and  _127
REMARK   52  A    between atoms: _126  and  _129
REMARK   53  A    between atoms: _129  and  _130
REMARK   54  A    between atoms: _130  and  _131
REMARK   55  A    between atoms: _131  and  _132
REMARK   56  A    between atoms: _132  and  _133
REMARK   57  A    between atoms: _137  and  _139
REMARK   58  A    between atoms: _139  and  _140
REMARK   59  A    between atoms: _139  and  _142
REMARK   60  A    between atoms: _142  and  _143
REMARK   61  A    between atoms: _143  and  _144
REMARK   62  A    between atoms: _147  and  _149
REMARK   63  A    between atoms: _149  and  _150
REMARK   64  A    between atoms: _149  and  _152
REMARK   65  A    between atoms: _155  and  _157
REMARK   66  A    between atoms: _157  and  _158
REMARK   67  A    between atoms: _157  and  _160
REMARK   68  A    between atoms: _160  and  _161
REMARK   69  A    between atoms: _163  and  _165
REMARK   70  A    between atoms: _165  and  _166
REMARK   71  A    between atoms: _165  and  _168
REMARK   72  A    between atoms: _168  and  _169
REMARK   73  A    between atoms: _169  and  _170
REMARK   74  A    between atoms: _175  and  _177
REMARK   75  A    between atoms: _177  and  _178
REMARK   76  A    between atoms: _177  and  _180
REMARK   77  A    between atoms: _182  and  _184
REMARK   78  A    between atoms: _184  and  _185
REMARK   79  A    between atoms: _184  and  _187
REMARK   80  A    between atoms: _189  and  _191
REMARK   81  A    between atoms: _191  and  _192
REMARK   82  A    between atoms: _191  and  _194
REMARK   83  A    between atoms: _194  and  _195
REMARK   84  A    between atoms: _198  and  _200
REMARK   85  A    between atoms: _200  and  _201
REMARK   86  A    between atoms: _200  and  _203
REMARK   87  A    between atoms: _203  and  _204
REMARK   88  A    between atoms: _207  and  _209
REMARK   89  A    between atoms: _209  and  _210
REMARK   90  A    between atoms: _209  and  _212
REMARK   91  A    between atoms: _212  and  _213
REMARK   92  A    between atoms: _213  and  _214
REMARK   93  A    between atoms: _214  and  _215
REMARK   94  A    between atoms: _215  and  _216
REMARK   95  A    between atoms: _220  and  _222
REMARK   96  A    between atoms: _222  and  _223
REMARK   97  A    between atoms: _222  and  _225
REMARK   98  A    between atoms: _225  and  _226
REMARK   99  A    between atoms: _231  and  _233
REMARK  100  A    between atoms: _233  and  _234
REMARK  101  A    between atoms: _233  and  _236
REMARK  102  A    between atoms: _236  and  _237
REMARK  103  A    between atoms: _242  and  _243
REMARK  104  A    between atoms: _245  and  _247
REMARK  105  A    between atoms: _247  and  _248
REMARK  106  A    between atoms: _247  and  _250
REMARK  107  A    between atoms: _253  and  _255
REMARK  108  A    between atoms: _255  and  _256
REMARK  109  A    between atoms: _255  and  _258
REMARK  110  A    between atoms: _258  and  _259
REMARK  111  A    between atoms: _259  and  _260
REMARK  112  A    between atoms: _260  and  _261
REMARK  113  A    between atoms: _261  and  _262
REMARK  114  A    between atoms: _266  and  _268
REMARK  115  A    between atoms: _268  and  _269
REMARK  116  A    between atoms: _268  and  _271
REMARK  117  A    between atoms: _271  and  _272
REMARK  118  A    between atoms: _275  and  _277
REMARK  119  A    between atoms: _277  and  _278
REMARK  120  A    between atoms: _277  and  _280
REMARK  121  A    between atoms: _280  and  _281
REMARK  122  A    between atoms: _281  and  _282
REMARK  123  A    between atoms: _282  and  _283
REMARK  124  A    between atoms: _283  and  _284
REMARK                            x       y       z     vdW  Elec       q    Type
REMARK                         _______ _______ _______ _____ _____    ______ ____
ROOT
ATOM      1  O   HOH     1      32.314  29.279  35.498  0.00  0.00    +0.000 OA
ENDROOT
TORSDOF 0
REMARK  Name = ../refined-set-2016/4g0q/4g0q_pocket.pdb
REMARK  124 active torsions:
REMARK  status: ('A' for Active; 'I' for Inactive)
REMARK    1  A    between atoms: _1  and  _3
REMARK    2  A    between atoms: _3  and  _4
REMARK    3  A    between atoms: _3  and  _6
REMARK    4  A    between atoms: _6  and  _7
REMARK    5  A    between atoms: _10  and  _12
REMARK    6  A    between atoms: _12  and  _13
REMARK    7  A    between atoms: _12  and  _15
REMARK    8  A    between atoms: _15  and  _16
REMARK    9  A    between atoms: _19  and  _21
REMARK   10  A    between atoms: _21  and  _22
REMARK   11  A    between atoms: _21  and  _24
REMARK   12  A    between atoms: _27  and  _29
REMARK   13  A    between atoms: _29  and  _30
REMARK   14  A    between atoms: _29  and  _32
REMARK   15  A    between atoms: _32  and  _33
REMARK   16  A    between atoms: _37  and  _38
REMARK   17  A    between atoms: _43  and  _45
REMARK   18  A    between atoms: _45  and  _46
REMARK   19  A    between atoms: _45  and  _48
REMARK   20  A    between atoms: _48  and  _49
REMARK   21  A    between atoms: _52  and  _54
REMARK   22  A    between atoms: _54  and  _55
REMARK   23  A    between atoms: _54  and  _57
REMARK   24  A    between atoms: _57  and  _58
REMARK   25  A    between atoms: _63  and  _65
REMARK   26  A    between atoms: _65  and  _66
REMARK   27  A    between atoms: _65  and  _68
REMARK   28  A    between atoms: _68  and  _69
REMARK   29  A    between atoms: _74  and  _76
REMARK   30  A    between atoms: _76  and  _77
REMARK   31  A    between atoms: _79  and  _81
REMARK   32  A    between atoms: _81  and  _82
REMARK   33  A    between atoms: _81  and  _84
REMARK   34  A    between atoms: _84  and  _85
REMARK   35  A    between atoms: _87  and  _89
REMARK   36  A    between atoms: _89  and  _90
REMARK   37  A    between atoms: _89  and  _92
REMARK   38  A    between atoms: _92  and  _93
REMARK   39  A    between atoms: _96  and  _98
REMARK   40  A    between atoms: _98  and  _99
REMARK   41  A    between atoms: _98  and  _101
REMARK   42  A    between atoms: _101  and  _102
REMARK   43  A    between atoms: _107  and  _108
REMARK   44  A    between atoms: _110  and  _112
REMARK   45  A    between atoms: _112  and  _113
REMARK   46  A    between atoms: _115  and  _117
REMARK   47  A    between atoms: _117  and  _118
REMARK   48  A    between atoms: _117  and  _120
REMARK   49  A    between atoms: _120  and  _121
REMARK   50  A    between atoms: _124  and  _126
REMARK   51  A    between atoms: _126  and  _127
REMARK   52  A    between atoms: _126  and  _129
REMARK   53  A    between atoms: _129  and  _130
REMARK   54  A    between atoms: _130  and  _131
REMARK   55  A    between atoms: _131  and  _132
REMARK   56  A    between atoms: _132  and  _133
REMARK   57  A    between atoms: _137  and  _139
REMARK   58  A    between atoms: _139  and  _140
REMARK   59  A    between atoms: _139  and  _142
REMARK   60  A    between atoms: _142  and  _143
REMARK   61  A    between atoms: _143  and  _144
REMARK   62  A    between atoms: _147  and  _149
REMARK   63  A    between atoms: _149  and  _150
REMARK   64  A    between atoms: _149  and  _152
REMARK   65  A    between atoms: _155  and  _157
REMARK   66  A    between atoms: _157  and  _158
REMARK   67  A    between atoms: _157  and  _160
REMARK   68  A    between atoms: _160  and  _161
REMARK   69  A    between atoms: _163  and  _165
REMARK   70  A    between atoms: _165  and  _166
REMARK   71  A    between atoms: _165  and  _168
REMARK   72  A    between atoms: _168  and  _169
REMARK   73  A    between atoms: _169  and  _170
REMARK   74  A    between atoms: _175  and  _177
REMARK   75  A    between atoms: _177  and  _178
REMARK   76  A    between atoms: _177  and  _180
REMARK   77  A    between atoms: _182  and  _184
REMARK   78  A    between atoms: _184  and  _185
REMARK   79  A    between atoms: _184  and  _187
REMARK   80  A    between atoms: _189  and  _191
REMARK   81  A    between atoms: _191  and  _192
REMARK   82  A    between atoms: _191  and  _194
REMARK   83  A    between atoms: _194  and  _195
REMARK   84  A    between atoms: _198  and  _200
REMARK   85  A    between atoms: _200  and  _201
REMARK   86  A    between atoms: _200  and  _203
REMARK   87  A    between atoms: _203  and  _204
REMARK   88  A    between atoms: _207  and  _209
REMARK   89  A    between atoms: _209  and  _210
REMARK   90  A    between atoms: _209  and  _212
REMARK   91  A    between atoms: _212  and  _213
REMARK   92  A    between atoms: _213  and  _214
REMARK   93  A    between atoms: _214  and  _215
REMARK   94  A    between atoms: _215  and  _216
REMARK   95  A    between atoms: _220  and  _222
REMARK   96  A    between atoms: _222  and  _223
REMARK   97  A    between atoms: _222  and  _225
REMARK   98  A    between atoms: _225  and  _226
REMARK   99  A    between atoms: _231  and  _233
REMARK  100  A    between atoms: _233  and  _234
REMARK  101  A    between atoms: _233  and  _236
REMARK  102  A    between atoms: _236  and  _237
REMARK  103  A    between atoms: _242  and  _243
REMARK  104  A    between atoms: _245  and  _247
REMARK  105  A    between atoms: _247  and  _248
REMARK  106  A    between atoms: _247  and  _250
REMARK  107  A    between atoms: _253  and  _255
REMARK  108  A    between atoms: _255  and  _256
REMARK  109  A    between atoms: _255  and  _258
REMARK  110  A    between atoms: _258  and  _259
REMARK  111  A    between atoms: _259  and  _260
REMARK  112  A    between atoms: _260  and  _261
REMARK  113  A    between atoms: _261  and  _262
REMARK  114  A    between atoms: _266  and  _268
REMARK  115  A    between atoms: _268  and  _269
REMARK  116  A    between atoms: _268  and  _271
REMARK  117  A    between atoms: _271  and  _272
REMARK  118  A    between atoms: _275  and  _277
REMARK  119  A    between atoms: _277  and  _278
REMARK  120  A    between atoms: _277  and  _280
REMARK  121  A    between atoms: _280  and  _281
REMARK  122  A    between atoms: _281  and  _282
REMARK  123  A    between atoms: _282  and  _283
REMARK  124  A    between atoms: _283  and  _284
REMARK                            x       y       z     vdW  Elec       q    Type
REMARK                         _______ _______ _______ _____ _____    ______ ____
ROOT
ATOM      1  O   HOH     1      34.024  29.512  41.727  0.00  0.00    +0.000 OA
ENDROOT
TORSDOF 0
REMARK  Name = ../refined-set-2016/4g0q/4g0q_pocket.pdb
REMARK  124 active torsions:
REMARK  status: ('A' for Active; 'I' for Inactive)
REMARK    1  A    between atoms: _1  and  _3
REMARK    2  A    between atoms: _3  and  _4
REMARK    3  A    between atoms: _3  and  _6
REMARK    4  A    between atoms: _6  and  _7
REMARK    5  A    between atoms: _10  and  _12
REMARK    6  A    between atoms: _12  and  _13
REMARK    7  A    between atoms: _12  and  _15
REMARK    8  A    between atoms: _15  and  _16
REMARK    9  A    between atoms: _19  and  _21
REMARK   10  A    between atoms: _21  and  _22
REMARK   11  A    between atoms: _21  and  _24
REMARK   12  A    between atoms: _27  and  _29
REMARK   13  A    between atoms: _29  and  _30
REMARK   14  A    between atoms: _29  and  _32
REMARK   15  A    between atoms: _32  and  _33
REMARK   16  A    between atoms: _37  and  _38
REMARK   17  A    between atoms: _43  and  _45
REMARK   18  A    between atoms: _45  and  _46
REMARK   19  A    between atoms: _45  and  _48
REMARK   20  A    between atoms: _48  and  _49
REMARK   21  A    between atoms: _52  and  _54
REMARK   22  A    between atoms: _54  and  _55
REMARK   23  A    between atoms: _54  and  _57
REMARK   24  A    between atoms: _57  and  _58
REMARK   25  A    between atoms: _63  and  _65
REMARK   26  A    between atoms: _65  and  _66
REMARK   27  A    between atoms: _65  and  _68
REMARK   28  A    between atoms: _68  and  _69
REMARK   29  A    between atoms: _74  and  _76
REMARK   30  A    between atoms: _76  and  _77
REMARK   31  A    between atoms: _79  and  _81
REMARK   32  A    between atoms: _81  and  _82
REMARK   33  A    between atoms: _81  and  _84
REMARK   34  A    between atoms: _84  and  _85
REMARK   35  A    between atoms: _87  and  _89
REMARK   36  A    between atoms: _89  and  _90
REMARK   37  A    between atoms: _89  and  _92
REMARK   38  A    between atoms: _92  and  _93
REMARK   39  A    between atoms: _96  and  _98
REMARK   40  A    between atoms: _98  and  _99
REMARK   41  A    between atoms: _98  and  _101
REMARK   42  A    between atoms: _101  and  _102
REMARK   43  A    between atoms: _107  and  _108
REMARK   44  A    between atoms: _110  and  _112
REMARK   45  A    between atoms: _112  and  _113
REMARK   46  A    between atoms: _115  and  _117
REMARK   47  A    between atoms: _117  and  _118
REMARK   48  A    between atoms: _117  and  _120
REMARK   49  A    between atoms: _120  and  _121
REMARK   50  A    between atoms: _124  and  _126
REMARK   51  A    between atoms: _126  and  _127
REMARK   52  A    between atoms: _126  and  _129
REMARK   53  A    between atoms: _129  and  _130
REMARK   54  A    between atoms: _130  and  _131
REMARK   55  A    between atoms: _131  and  _132
REMARK   56  A    between atoms: _132  and  _133
REMARK   57  A    between atoms: _137  and  _139
REMARK   58  A    between atoms: _139  and  _140
REMARK   59  A    between atoms: _139  and  _142
REMARK   60  A    between atoms: _142  and  _143
REMARK   61  A    between atoms: _143  and  _144
REMARK   62  A    between atoms: _147  and  _149
REMARK   63  A    between atoms: _149  and  _150
REMARK   64  A    between atoms: _149  and  _152
REMARK   65  A    between atoms: _155  and  _157
REMARK   66  A    between atoms: _157  and  _158
REMARK   67  A    between atoms: _157  and  _160
REMARK   68  A    between atoms: _160  and  _161
REMARK   69  A    between atoms: _163  and  _165
REMARK   70  A    between atoms: _165  and  _166
REMARK   71  A    between atoms: _165  and  _168
REMARK   72  A    between atoms: _168  and  _169
REMARK   73  A    between atoms: _169  and  _170
REMARK   74  A    between atoms: _175  and  _177
REMARK   75  A    between atoms: _177  and  _178
REMARK   76  A    between atoms: _177  and  _180
REMARK   77  A    between atoms: _182  and  _184
REMARK   78  A    between atoms: _184  and  _185
REMARK   79  A    between atoms: _184  and  _187
REMARK   80  A    between atoms: _189  and  _191
REMARK   81  A    between atoms: _191  and  _192
REMARK   82  A    between atoms: _191  and  _194
REMARK   83  A    between atoms: _194  and  _195
REMARK   84  A    between atoms: _198  and  _200
REMARK   85  A    between atoms: _200  and  _201
REMARK   86  A    between atoms: _200  and  _203
REMARK   87  A    between atoms: _203  and  _204
REMARK   88  A    between atoms: _207  and  _209
REMARK   89  A    between atoms: _209  and  _210
REMARK   90  A    between atoms: _209  and  _212
REMARK   91  A    between atoms: _212  and  _213
REMARK   92  A    between atoms: _213  and  _214
REMARK   93  A    between atoms: _214  and  _215
REMARK   94  A    between atoms: _215  and  _216
REMARK   95  A    between atoms: _220  and  _222
REMARK   96  A    between atoms: _222  and  _223
REMARK   97  A    between atoms: _222  and  _225
REMARK   98  A    between atoms: _225  and  _226
REMARK   99  A    between atoms: _231  and  _233
REMARK  100  A    between atoms: _233  and  _234
REMARK  101  A    between atoms: _233  and  _236
REMARK  102  A    between atoms: _236  and  _237
REMARK  103  A    between atoms: _242  and  _243
REMARK  104  A    between atoms: _245  and  _247
REMARK  105  A    between atoms: _247  and  _248
REMARK  106  A    between atoms: _247  and  _250
REMARK  107  A    between atoms: _253  and  _255
REMARK  108  A    between atoms: _255  and  _256
REMARK  109  A    between atoms: _255  and  _258
REMARK  110  A    between atoms: _258  and  _259
REMARK  111  A    between atoms: _259  and  _260
REMARK  112  A    between atoms: _260  and  _261
REMARK  113  A    between atoms: _261  and  _262
REMARK  114  A    between atoms: _266  and  _268
REMARK  115  A    between atoms: _268  and  _269
REMARK  116  A    between atoms: _268  and  _271
REMARK  117  A    between atoms: _271  and  _272
REMARK  118  A    between atoms: _275  and  _277
REMARK  119  A    between atoms: _277  and  _278
REMARK  120  A    between atoms: _277  and  _280
REMARK  121  A    between atoms: _280  and  _281
REMARK  122  A    between atoms: _281  and  _282
REMARK  123  A    between atoms: _282  and  _283
REMARK  124  A    between atoms: _283  and  _284
REMARK                            x       y       z     vdW  Elec       q    Type
REMARK                         _______ _______ _______ _____ _____    ______ ____
ROOT
ATOM      1  O   HOH     1      37.717  33.830  39.663  0.00  0.00    +0.000 OA
ENDROOT
TORSDOF 0
