REMARK  Name = ../refined-set-2016/4pow/4pow_pocket.pdb
REMARK  213 active torsions:
REMARK  status: ('A' for Active; 'I' for Inactive)
REMARK    1  A    between atoms: _1  and  _3
REMARK    2  A    between atoms: _3  and  _4
REMARK    3  A    between atoms: _3  and  _6
REMARK    4  A    between atoms: _6  and  _7
REMARK    5  A    between atoms: _10  and  _12
REMARK    6  A    between atoms: _12  and  _13
REMARK    7  A    between atoms: _12  and  _15
REMARK    8  A    between atoms: _15  and  _16
REMARK    9  A    between atoms: _16  and  _17
REMARK   10  A    between atoms: _20  and  _22
REMARK   11  A    between atoms: _22  and  _23
REMARK   12  A    between atoms: _25  and  _27
REMARK   13  A    between atoms: _27  and  _28
REMARK   14  A    between atoms: _27  and  _30
REMARK   15  A    between atoms: _30  and  _31
REMARK   16  A    between atoms: _33  and  _35
REMARK   17  A    between atoms: _35  and  _36
REMARK   18  A    between atoms: _35  and  _38
REMARK   19  A    between atoms: _38  and  _39
REMARK   20  A    between atoms: _44  and  _45
REMARK   21  A    between atoms: _47  and  _49
REMARK   22  A    between atoms: _49  and  _50
REMARK   23  A    between atoms: _54  and  _55
REMARK   24  A    between atoms: _60  and  _62
REMARK   25  A    between atoms: _62  and  _63
REMARK   26  A    between atoms: _62  and  _65
REMARK   27  A    between atoms: _65  and  _66
REMARK   28  A    between atoms: _71  and  _72
REMARK   29  A    between atoms: _74  and  _76
REMARK   30  A    between atoms: _76  and  _77
REMARK   31  A    between atoms: _76  and  _79
REMARK   32  A    between atoms: _79  and  _80
REMARK   33  A    between atoms: _85  and  _87
REMARK   34  A    between atoms: _87  and  _88
REMARK   35  A    between atoms: _87  and  _90
REMARK   36  A    between atoms: _90  and  _91
REMARK   37  A    between atoms: _94  and  _96
REMARK   38  A    between atoms: _96  and  _97
REMARK   39  A    between atoms: _96  and  _99
REMARK   40  A    between atoms: _99  and  _100
REMARK   41  A    between atoms: _100  and  _101
REMARK   42  A    between atoms: _106  and  _108
REMARK   43  A    between atoms: _108  and  _109
REMARK   44  A    between atoms: _112  and  _114
REMARK   45  A    between atoms: _114  and  _115
REMARK   46  A    between atoms: _114  and  _117
REMARK   47  A    between atoms: _117  and  _118
REMARK   48  A    between atoms: _128  and  _130
REMARK   49  A    between atoms: _130  and  _131
REMARK   50  A    between atoms: _130  and  _133
REMARK   51  A    between atoms: _133  and  _134
REMARK   52  A    between atoms: _137  and  _139
REMARK   53  A    between atoms: _139  and  _140
REMARK   54  A    between atoms: _139  and  _142
REMARK   55  A    between atoms: _142  and  _143
REMARK   56  A    between atoms: _146  and  _148
REMARK   57  A    between atoms: _148  and  _149
REMARK   58  A    between atoms: _148  and  _151
REMARK   59  A    between atoms: _151  and  _152
REMARK   60  A    between atoms: _152  and  _153
REMARK   61  A    between atoms: _155  and  _157
REMARK   62  A    between atoms: _157  and  _158
REMARK   63  A    between atoms: _161  and  _163
REMARK   64  A    between atoms: _163  and  _164
REMARK   65  A    between atoms: _167  and  _169
REMARK   66  A    between atoms: _169  and  _170
REMARK   67  A    between atoms: _169  and  _172
REMARK   68  A    between atoms: _172  and  _173
REMARK   69  A    between atoms: _173  and  _174
REMARK   70  A    between atoms: _176  and  _178
REMARK   71  A    between atoms: _178  and  _179
REMARK   72  A    between atoms: _181  and  _183
REMARK   73  A    between atoms: _183  and  _184
REMARK   74  A    between atoms: _183  and  _186
REMARK   75  A    between atoms: _186  and  _187
REMARK   76  A    between atoms: _190  and  _192
REMARK   77  A    between atoms: _192  and  _193
REMARK   78  A    between atoms: _192  and  _195
REMARK   79  A    between atoms: _195  and  _196
REMARK   80  A    between atoms: _196  and  _197
REMARK   81  A    between atoms: _202  and  _204
REMARK   82  A    between atoms: _204  and  _205
REMARK   83  A    between atoms: _204  and  _207
REMARK   84  A    between atoms: _207  and  _208
REMARK   85  A    between atoms: _208  and  _209
REMARK   86  A    between atoms: _209  and  _210
REMARK   87  A    between atoms: _219  and  _221
REMARK   88  A    between atoms: _221  and  _222
REMARK   89  A    between atoms: _221  and  _224
REMARK   90  A    between atoms: _224  and  _225
REMARK   91  A    between atoms: _231  and  _233
REMARK   92  A    between atoms: _233  and  _234
REMARK   93  A    between atoms: _233  and  _236
REMARK   94  A    between atoms: _236  and  _237
REMARK   95  A    between atoms: _240  and  _242
REMARK   96  A    between atoms: _242  and  _243
REMARK   97  A    between atoms: _242  and  _245
REMARK   98  A    between atoms: _245  and  _246
REMARK   99  A    between atoms: _249  and  _251
REMARK  100  A    between atoms: _251  and  _252
REMARK  101  A    between atoms: _251  and  _254
REMARK  102  A    between atoms: _254  and  _255
REMARK  103  A    between atoms: _259  and  _260
REMARK  104  A    between atoms: _265  and  _267
REMARK  105  A    between atoms: _267  and  _268
REMARK  106  A    between atoms: _267  and  _270
REMARK  107  A    between atoms: _270  and  _271
REMARK  108  A    between atoms: _271  and  _272
REMARK  109  A    between atoms: _274  and  _276
REMARK  110  A    between atoms: _276  and  _277
REMARK  111  A    between atoms: _276  and  _279
REMARK  112  A    between atoms: _279  and  _280
REMARK  113  A    between atoms: _283  and  _285
REMARK  114  A    between atoms: _285  and  _286
REMARK  115  A    between atoms: _285  and  _288
REMARK  116  A    between atoms: _288  and  _289
REMARK  117  A    between atoms: _289  and  _290
REMARK  118  A    between atoms: _295  and  _297
REMARK  119  A    between atoms: _297  and  _298
REMARK  120  A    between atoms: _301  and  _303
REMARK  121  A    between atoms: _303  and  _304
REMARK  122  A    between atoms: _306  and  _308
REMARK  123  A    between atoms: _308  and  _309
REMARK  124  A    between atoms: _308  and  _311
REMARK  125  A    between atoms: _311  and  _312
REMARK  126  A    between atoms: _315  and  _317
REMARK  127  A    between atoms: _317  and  _318
REMARK  128  A    between atoms: _317  and  _320
REMARK  129  A    between atoms: _320  and  _321
REMARK  130  A    between atoms: _323  and  _325
REMARK  131  A    between atoms: _325  and  _326
REMARK  132  A    between atoms: _325  and  _328
REMARK  133  A    between atoms: _328  and  _329
REMARK  134  A    between atoms: _334  and  _336
REMARK  135  A    between atoms: _336  and  _337
REMARK  136  A    between atoms: _336  and  _339
REMARK  137  A    between atoms: _339  and  _340
REMARK  138  A    between atoms: _340  and  _341
REMARK  139  A    between atoms: _344  and  _346
REMARK  140  A    between atoms: _346  and  _347
REMARK  141  A    between atoms: _350  and  _352
REMARK  142  A    between atoms: _352  and  _353
REMARK  143  A    between atoms: _352  and  _355
REMARK  144  A    between atoms: _355  and  _356
REMARK  145  A    between atoms: _362  and  _364
REMARK  146  A    between atoms: _364  and  _365
REMARK  147  A    between atoms: _364  and  _367
REMARK  148  A    between atoms: _367  and  _368
REMARK  149  A    between atoms: _371  and  _373
REMARK  150  A    between atoms: _373  and  _374
REMARK  151  A    between atoms: _373  and  _376
REMARK  152  A    between atoms: _376  and  _377
REMARK  153  A    between atoms: _380  and  _382
REMARK  154  A    between atoms: _382  and  _383
REMARK  155  A    between atoms: _382  and  _385
REMARK  156  A    between atoms: _385  and  _386
REMARK  157  A    between atoms: _389  and  _391
REMARK  158  A    between atoms: _391  and  _392
REMARK  159  A    between atoms: _391  and  _394
REMARK  160  A    between atoms: _394  and  _395
REMARK  161  A    between atoms: _398  and  _400
REMARK  162  A    between atoms: _400  and  _401
REMARK  163  A    between atoms: _400  and  _403
REMARK  164  A    between atoms: _403  and  _404
REMARK  165  A    between atoms: _407  and  _409
REMARK  166  A    between atoms: _409  and  _410
REMARK  167  A    between atoms: _413  and  _415
REMARK  168  A    between atoms: _415  and  _416
REMARK  169  A    between atoms: _415  and  _418
REMARK  170  A    between atoms: _418  and  _419
REMARK  171  A    between atoms: _421  and  _423
REMARK  172  A    between atoms: _423  and  _424
REMARK  173  A    between atoms: _423  and  _426
REMARK  174  A    between atoms: _429  and  _431
REMARK  175  A    between atoms: _431  and  _432
REMARK  176  A    between atoms: _431  and  _434
REMARK  177  A    between atoms: _434  and  _435
REMARK  178  A    between atoms: _437  and  _439
REMARK  179  A    between atoms: _439  and  _440
REMARK  180  A    between atoms: _439  and  _442
REMARK  181  A    between atoms: _442  and  _443
REMARK  182  A    between atoms: _449  and  _451
REMARK  183  A    between atoms: _451  and  _452
REMARK  184  A    between atoms: _451  and  _454
REMARK  185  A    between atoms: _454  and  _455
REMARK  186  A    between atoms: _458  and  _460
REMARK  187  A    between atoms: _460  and  _461
REMARK  188  A    between atoms: _460  and  _463
REMARK  189  A    between atoms: _463  and  _464
REMARK  190  A    between atoms: _467  and  _469
REMARK  191  A    between atoms: _469  and  _470
REMARK  192  A    between atoms: _469  and  _472
REMARK  193  A    between atoms: _472  and  _473
REMARK  194  A    between atoms: _479  and  _481
REMARK  195  A    between atoms: _481  and  _482
REMARK  196  A    between atoms: _484  and  _486
REMARK  197  A    between atoms: _486  and  _487
REMARK  198  A    between atoms: _486  and  _489
REMARK  199  A    between atoms: _489  and  _490
REMARK  200  A    between atoms: _490  and  _491
REMARK  201  A    between atoms: _491  and  _492
REMARK  202  A    between atoms: _492  and  _493
REMARK  203  A    between atoms: _497  and  _499
REMARK  204  A    between atoms: _499  and  _500
REMARK  205  A    between atoms: _502  and  _504
REMARK  206  A    between atoms: _504  and  _505
REMARK  207  A    between atoms: _504  and  _507
REMARK  208  A    between atoms: _510  and  _512
REMARK  209  A    between atoms: _512  and  _513
REMARK  210  A    between atoms: _515  and  _517
REMARK  211  A    between atoms: _517  and  _518
REMARK  212  A    between atoms: _517  and  _520
REMARK  213  A    between atoms: _520  and  _521
REMARK                            x       y       z     vdW  Elec       q    Type
REMARK                         _______ _______ _______ _____ _____    ______ ____
ROOT
ATOM      1  CA  TYR A   5       7.121  25.605   8.255  0.00  0.00    +0.153 C 
ENDROOT
BRANCH   1   4
ATOM      2  C   SER A   4       7.305  25.224  10.652  0.00  0.00    +0.243 C 
ATOM      3  O   SER A   4       7.995  24.217  10.469  0.00  0.00    -0.273 OA
ATOM      4  N   TYR A   5       6.877  26.002   9.636  0.00  0.00    -0.297 N 
ATOM      5  H   TYR A   5       6.371  26.888   9.839  0.00  0.00    +0.150 HD
BRANCH   2   6
ATOM      6  CA  SER A   4       6.962  25.663  12.067  0.00  0.00    +0.178 C 
BRANCH   6   9
ATOM      7  C   GLY A   3       5.352  27.364  12.790  0.00  0.00    +0.243 C 
ATOM      8  O   GLY A   3       6.231  28.012  13.363  0.00  0.00    -0.273 OA
ATOM      9  N   SER A   4       5.606  26.216  12.149  0.00  0.00    -0.295 N 
ATOM     10  H   SER A   4       4.822  25.703  11.698  0.00  0.00    +0.150 HD
BRANCH   7  11
ATOM     11  CA  GLY A   3       3.918  27.862  12.800  0.00  0.00    +0.176 C 
BRANCH  11  14
ATOM     12  C   GLU A   2       2.277  26.117  13.113  0.00  0.00    +0.241 C 
ATOM     13  O   GLU A   2       2.472  26.101  14.336  0.00  0.00    -0.273 OA
ATOM     14  N   GLY A   3       2.947  26.904  12.288  0.00  0.00    -0.295 N 
ATOM     15  H   GLY A   3       2.779  26.838  11.264  0.00  0.00    +0.150 HD
BRANCH  12  16
ATOM     16  CA  GLU A   2       1.298  25.128  12.462  0.00  0.00    +0.149 C 
BRANCH  16  19
ATOM     17  C   THR A   1      -0.769  26.321  12.110  0.00  0.00    +0.241 C 
ATOM     18  O   THR A   1      -1.001  26.297  13.315  0.00  0.00    -0.274 OA
ATOM     19  N   GLU A   2       0.336  25.792  11.586  0.00  0.00    -0.297 N 
ATOM     20  H   GLU A   2       0.512  25.851  10.563  0.00  0.00    +0.150 HD
BRANCH  17  21
ATOM     21  CA  THR A   1      -1.749  26.962  11.151  0.00  0.00    +0.172 C 
BRANCH  21  22
ATOM     22  CB  THR A   1      -1.234  28.260  10.531  0.00  0.00    +0.135 C 
ATOM     23  CG2 THR A   1      -0.633  29.211  11.568  0.00  0.00    +0.034 C 
BRANCH  22  24
ATOM     24  OG1 THR A   1      -0.244  27.880   9.576  0.00  0.00    -0.383 OA
ATOM     25  HG1 THR A   1      -0.655  27.296   8.890  0.00  0.00    +0.210 HD
ENDBRANCH  22  24
ENDBRANCH  21  22
BRANCH  21  26
ATOM     26  N   THR A   1      -3.003  27.172  11.872  0.00  0.00    -0.236 NA
ATOM     27  H   THR A   1      -2.964  27.520  12.851  0.00  0.00    +0.142 HD
ENDBRANCH  21  26
ENDBRANCH  17  21
ENDBRANCH  16  19
BRANCH  16  28
ATOM     28  CB  GLU A   2       2.039  24.054  11.686  0.00  0.00    +0.041 C 
BRANCH  28  29
ATOM     29  CG  GLU A   2       3.013  23.240  12.513  0.00  0.00    +0.116 C 
BRANCH  29  30
ATOM     30  CD  GLU A   2       4.189  22.729  11.703  0.00  0.00    +0.365 C 
ATOM     31  OE2 GLU A   2       4.723  21.654  12.053  0.00  0.00    -0.246 OA
ATOM     32  OE1 GLU A   2       4.593  23.416  10.735  0.00  0.00    -0.246 OA
ENDBRANCH  29  30
ENDBRANCH  28  29
ENDBRANCH  16  28
ENDBRANCH  12  16
ENDBRANCH  11  14
ENDBRANCH   7  11
ENDBRANCH   6   9
BRANCH   6  33
ATOM     33  CB  SER A   4       7.109  24.467  13.018  0.00  0.00    +0.166 C 
BRANCH  33  34
ATOM     34  OG  SER A   4       6.932  24.876  14.367  0.00  0.00    -0.380 OA
ATOM     35  H   SER A   4       7.615  25.555  14.597  0.00  0.00    +0.211 HD
ENDBRANCH  33  34
ENDBRANCH   6  33
ENDBRANCH   2   6
ENDBRANCH   1   4
BRANCH   1  36
ATOM     36  C   TYR A   5       7.324  26.845   7.400  0.00  0.00    +0.241 C 
ATOM     37  N   ALA A   6       8.464  27.511   7.588  0.00  0.00    -0.297 N 
ATOM     38  H   ALA A   6       9.145  27.182   8.301  0.00  0.00    +0.150 HD
ATOM     39  O   TYR A   5       6.460  27.208   6.597  0.00  0.00    -0.273 OA
BRANCH  37  40
ATOM     40  CA  ALA A   6       8.758  28.701   6.795  0.00  0.00    +0.149 C 
ATOM     41  CB  ALA A   6      10.018  29.368   7.332  0.00  0.00    +0.031 C 
BRANCH  40  42
ATOM     42  C   ALA A   6       8.977  28.351   5.323  0.00  0.00    +0.244 C 
ATOM     43  O   ALA A   6       9.556  27.295   5.027  0.00  0.00    -0.273 OA
ATOM     44  N   PRO A   7       8.612  29.223   4.373  0.00  0.00    -0.272 N 
ATOM     45  CA  PRO A   7       8.013  30.561   4.567  0.00  0.00    +0.152 C 
ATOM     46  CB  PRO A   7       8.643  31.376   3.438  0.00  0.00    +0.031 C 
ATOM     47  CG  PRO A   7       8.665  30.347   2.276  0.00  0.00    +0.024 C 
ATOM     48  CD  PRO A   7       8.927  28.981   2.943  0.00  0.00    +0.094 C 
BRANCH  45  49
ATOM     49  C   PRO A   7       6.486  30.520   4.509  0.00  0.00    +0.241 C 
ATOM     50  N   TYR A   8       5.864  29.317   4.612  0.00  0.00    -0.297 N 
ATOM     51  H   TYR A   8       6.421  28.443   4.697  0.00  0.00    +0.150 HD
ATOM     52  O   PRO A   7       5.869  31.568   4.373  0.00  0.00    -0.273 OA
BRANCH  50  53
ATOM     53  CA  TYR A   8       4.401  29.263   4.602  0.00  0.00    +0.153 C 
BRANCH  53  54
ATOM     54  C   TYR A   8       3.818  29.790   5.911  0.00  0.00    +0.241 C 
ATOM     55  N   ASN A   9       4.294  29.262   7.034  0.00  0.00    -0.298 N 
ATOM     56  H   ASN A   9       5.054  28.554   6.985  0.00  0.00    +0.150 HD
ATOM     57  O   TYR A   8       2.882  30.590   5.907  0.00  0.00    -0.273 OA
BRANCH  55  58
ATOM     58  CA  ASN A   9       3.765  29.662   8.335  0.00  0.00    +0.146 C 
BRANCH  58  59
ATOM     59  C   ASN A   9       4.843  29.438   9.372  0.00  0.00    +0.227 C 
ATOM     60  O   ASN A   9       5.362  28.332   9.519  0.00  0.00    -0.286 OA
ENDBRANCH  58  59
BRANCH  58  61
ATOM     61  CB  ASN A   9       2.478  28.887   8.693  0.00  0.00    +0.112 C 
BRANCH  61  62
ATOM     62  CG  ASN A   9       2.568  27.379   8.547  0.00  0.00    +0.222 C 
ATOM     63  OD1 ASN A   9       2.775  26.644   9.510  0.00  0.00    -0.275 OA
ATOM     64  ND2 ASN A   9       2.316  26.891   7.336  0.00  0.00    -0.329 N 
ATOM     65 HD21 ASN A   9       2.290  25.862   7.185  0.00  0.00    +0.145 HD
ATOM     66 HD22 ASN A   9       2.145  27.538   6.540  0.00  0.00    +0.145 HD
ENDBRANCH  61  62
ENDBRANCH  58  61
ENDBRANCH  55  58
ENDBRANCH  53  54
BRANCH  53  67
ATOM     67  CB  TYR A   8       3.921  27.825   4.482  0.00  0.00    +0.055 C 
BRANCH  67  68
ATOM     68  CG  TYR A   8       3.962  27.231   3.099  0.00  0.00    -0.020 A 
ATOM     69  CD2 TYR A   8       5.094  26.547   2.647  0.00  0.00    -0.001 A 
ATOM     70  CE2 TYR A   8       5.077  25.850   1.436  0.00  0.00    +0.036 A 
ATOM     71  CZ  TYR A   8       3.927  25.864   0.656  0.00  0.00    +0.134 A 
ATOM     72  CE1 TYR A   8       2.806  26.561   1.068  0.00  0.00    +0.036 A 
ATOM     73  CD1 TYR A   8       2.824  27.229   2.289  0.00  0.00    -0.001 A 
BRANCH  71  74
ATOM     74  OH  TYR A   8       3.881  25.184  -0.533  0.00  0.00    -0.506 OA
ATOM     75  HH  TYR A   8       4.580  25.535  -1.140  0.00  0.00    +0.292 HD
ENDBRANCH  71  74
ENDBRANCH  67  68
ENDBRANCH  53  67
ENDBRANCH  50  53
ENDBRANCH  45  49
ENDBRANCH  40  42
ENDBRANCH  37  40
ENDBRANCH   1  36
BRANCH   1  76
ATOM     76  CB  TYR A   5       5.952  24.750   7.748  0.00  0.00    +0.055 C 
BRANCH  76  77
ATOM     77  CG  TYR A   5       6.358  23.822   6.633  0.00  0.00    -0.020 A 
ATOM     78  CD2 TYR A   5       7.076  22.656   6.898  0.00  0.00    -0.001 A 
ATOM     79  CE2 TYR A   5       7.446  21.786   5.877  0.00  0.00    +0.036 A 
ATOM     80  CZ  TYR A   5       7.074  22.061   4.571  0.00  0.00    +0.134 A 
ATOM     81  CE1 TYR A   5       6.379  23.227   4.277  0.00  0.00    +0.036 A 
ATOM     82  CD1 TYR A   5       6.024  24.101   5.310  0.00  0.00    -0.001 A 
BRANCH  80  83
ATOM     83  OH  TYR A   5       7.471  21.209   3.556  0.00  0.00    -0.506 OA
ATOM     84  HH  TYR A   5       6.674  20.891   3.063  0.00  0.00    +0.292 HD
ENDBRANCH  80  83
ENDBRANCH  76  77
ENDBRANCH   1  76
TORSDOF 32
REMARK  Name = ../refined-set-2016/4pow/4pow_pocket.pdb
REMARK  213 active torsions:
REMARK  status: ('A' for Active; 'I' for Inactive)
REMARK    1  A    between atoms: _1  and  _3
REMARK    2  A    between atoms: _3  and  _4
REMARK    3  A    between atoms: _3  and  _6
REMARK    4  A    between atoms: _6  and  _7
REMARK    5  A    between atoms: _10  and  _12
REMARK    6  A    between atoms: _12  and  _13
REMARK    7  A    between atoms: _12  and  _15
REMARK    8  A    between atoms: _15  and  _16
REMARK    9  A    between atoms: _16  and  _17
REMARK   10  A    between atoms: _20  and  _22
REMARK   11  A    between atoms: _22  and  _23
REMARK   12  A    between atoms: _25  and  _27
REMARK   13  A    between atoms: _27  and  _28
REMARK   14  A    between atoms: _27  and  _30
REMARK   15  A    between atoms: _30  and  _31
REMARK   16  A    between atoms: _33  and  _35
REMARK   17  A    between atoms: _35  and  _36
REMARK   18  A    between atoms: _35  and  _38
REMARK   19  A    between atoms: _38  and  _39
REMARK   20  A    between atoms: _44  and  _45
REMARK   21  A    between atoms: _47  and  _49
REMARK   22  A    between atoms: _49  and  _50
REMARK   23  A    between atoms: _54  and  _55
REMARK   24  A    between atoms: _60  and  _62
REMARK   25  A    between atoms: _62  and  _63
REMARK   26  A    between atoms: _62  and  _65
REMARK   27  A    between atoms: _65  and  _66
REMARK   28  A    between atoms: _71  and  _72
REMARK   29  A    between atoms: _74  and  _76
REMARK   30  A    between atoms: _76  and  _77
REMARK   31  A    between atoms: _76  and  _79
REMARK   32  A    between atoms: _79  and  _80
REMARK   33  A    between atoms: _85  and  _87
REMARK   34  A    between atoms: _87  and  _88
REMARK   35  A    between atoms: _87  and  _90
REMARK   36  A    between atoms: _90  and  _91
REMARK   37  A    between atoms: _94  and  _96
REMARK   38  A    between atoms: _96  and  _97
REMARK   39  A    between atoms: _96  and  _99
REMARK   40  A    between atoms: _99  and  _100
REMARK   41  A    between atoms: _100  and  _101
REMARK   42  A    between atoms: _106  and  _108
REMARK   43  A    between atoms: _108  and  _109
REMARK   44  A    between atoms: _112  and  _114
REMARK   45  A    between atoms: _114  and  _115
REMARK   46  A    between atoms: _114  and  _117
REMARK   47  A    between atoms: _117  and  _118
REMARK   48  A    between atoms: _128  and  _130
REMARK   49  A    between atoms: _130  and  _131
REMARK   50  A    between atoms: _130  and  _133
REMARK   51  A    between atoms: _133  and  _134
REMARK   52  A    between atoms: _137  and  _139
REMARK   53  A    between atoms: _139  and  _140
REMARK   54  A    between atoms: _139  and  _142
REMARK   55  A    between atoms: _142  and  _143
REMARK   56  A    between atoms: _146  and  _148
REMARK   57  A    between atoms: _148  and  _149
REMARK   58  A    between atoms: _148  and  _151
REMARK   59  A    between atoms: _151  and  _152
REMARK   60  A    between atoms: _152  and  _153
REMARK   61  A    between atoms: _155  and  _157
REMARK   62  A    between atoms: _157  and  _158
REMARK   63  A    between atoms: _161  and  _163
REMARK   64  A    between atoms: _163  and  _164
REMARK   65  A    between atoms: _167  and  _169
REMARK   66  A    between atoms: _169  and  _170
REMARK   67  A    between atoms: _169  and  _172
REMARK   68  A    between atoms: _172  and  _173
REMARK   69  A    between atoms: _173  and  _174
REMARK   70  A    between atoms: _176  and  _178
REMARK   71  A    between atoms: _178  and  _179
REMARK   72  A    between atoms: _181  and  _183
REMARK   73  A    between atoms: _183  and  _184
REMARK   74  A    between atoms: _183  and  _186
REMARK   75  A    between atoms: _186  and  _187
REMARK   76  A    between atoms: _190  and  _192
REMARK   77  A    between atoms: _192  and  _193
REMARK   78  A    between atoms: _192  and  _195
REMARK   79  A    between atoms: _195  and  _196
REMARK   80  A    between atoms: _196  and  _197
REMARK   81  A    between atoms: _202  and  _204
REMARK   82  A    between atoms: _204  and  _205
REMARK   83  A    between atoms: _204  and  _207
REMARK   84  A    between atoms: _207  and  _208
REMARK   85  A    between atoms: _208  and  _209
REMARK   86  A    between atoms: _209  and  _210
REMARK   87  A    between atoms: _219  and  _221
REMARK   88  A    between atoms: _221  and  _222
REMARK   89  A    between atoms: _221  and  _224
REMARK   90  A    between atoms: _224  and  _225
REMARK   91  A    between atoms: _231  and  _233
REMARK   92  A    between atoms: _233  and  _234
REMARK   93  A    between atoms: _233  and  _236
REMARK   94  A    between atoms: _236  and  _237
REMARK   95  A    between atoms: _240  and  _242
REMARK   96  A    between atoms: _242  and  _243
REMARK   97  A    between atoms: _242  and  _245
REMARK   98  A    between atoms: _245  and  _246
REMARK   99  A    between atoms: _249  and  _251
REMARK  100  A    between atoms: _251  and  _252
REMARK  101  A    between atoms: _251  and  _254
REMARK  102  A    between atoms: _254  and  _255
REMARK  103  A    between atoms: _259  and  _260
REMARK  104  A    between atoms: _265  and  _267
REMARK  105  A    between atoms: _267  and  _268
REMARK  106  A    between atoms: _267  and  _270
REMARK  107  A    between atoms: _270  and  _271
REMARK  108  A    between atoms: _271  and  _272
REMARK  109  A    between atoms: _274  and  _276
REMARK  110  A    between atoms: _276  and  _277
REMARK  111  A    between atoms: _276  and  _279
REMARK  112  A    between atoms: _279  and  _280
REMARK  113  A    between atoms: _283  and  _285
REMARK  114  A    between atoms: _285  and  _286
REMARK  115  A    between atoms: _285  and  _288
REMARK  116  A    between atoms: _288  and  _289
REMARK  117  A    between atoms: _289  and  _290
REMARK  118  A    between atoms: _295  and  _297
REMARK  119  A    between atoms: _297  and  _298
REMARK  120  A    between atoms: _301  and  _303
REMARK  121  A    between atoms: _303  and  _304
REMARK  122  A    between atoms: _306  and  _308
REMARK  123  A    between atoms: _308  and  _309
REMARK  124  A    between atoms: _308  and  _311
REMARK  125  A    between atoms: _311  and  _312
REMARK  126  A    between atoms: _315  and  _317
REMARK  127  A    between atoms: _317  and  _318
REMARK  128  A    between atoms: _317  and  _320
REMARK  129  A    between atoms: _320  and  _321
REMARK  130  A    between atoms: _323  and  _325
REMARK  131  A    between atoms: _325  and  _326
REMARK  132  A    between atoms: _325  and  _328
REMARK  133  A    between atoms: _328  and  _329
REMARK  134  A    between atoms: _334  and  _336
REMARK  135  A    between atoms: _336  and  _337
REMARK  136  A    between atoms: _336  and  _339
REMARK  137  A    between atoms: _339  and  _340
REMARK  138  A    between atoms: _340  and  _341
REMARK  139  A    between atoms: _344  and  _346
REMARK  140  A    between atoms: _346  and  _347
REMARK  141  A    between atoms: _350  and  _352
REMARK  142  A    between atoms: _352  and  _353
REMARK  143  A    between atoms: _352  and  _355
REMARK  144  A    between atoms: _355  and  _356
REMARK  145  A    between atoms: _362  and  _364
REMARK  146  A    between atoms: _364  and  _365
REMARK  147  A    between atoms: _364  and  _367
REMARK  148  A    between atoms: _367  and  _368
REMARK  149  A    between atoms: _371  and  _373
REMARK  150  A    between atoms: _373  and  _374
REMARK  151  A    between atoms: _373  and  _376
REMARK  152  A    between atoms: _376  and  _377
REMARK  153  A    between atoms: _380  and  _382
REMARK  154  A    between atoms: _382  and  _383
REMARK  155  A    between atoms: _382  and  _385
REMARK  156  A    between atoms: _385  and  _386
REMARK  157  A    between atoms: _389  and  _391
REMARK  158  A    between atoms: _391  and  _392
REMARK  159  A    between atoms: _391  and  _394
REMARK  160  A    between atoms: _394  and  _395
REMARK  161  A    between atoms: _398  and  _400
REMARK  162  A    between atoms: _400  and  _401
REMARK  163  A    between atoms: _400  and  _403
REMARK  164  A    between atoms: _403  and  _404
REMARK  165  A    between atoms: _407  and  _409
REMARK  166  A    between atoms: _409  and  _410
REMARK  167  A    between atoms: _413  and  _415
REMARK  168  A    between atoms: _415  and  _416
REMARK  169  A    between atoms: _415  and  _418
REMARK  170  A    between atoms: _418  and  _419
REMARK  171  A    between atoms: _421  and  _423
REMARK  172  A    between atoms: _423  and  _424
REMARK  173  A    between atoms: _423  and  _426
REMARK  174  A    between atoms: _429  and  _431
REMARK  175  A    between atoms: _431  and  _432
REMARK  176  A    between atoms: _431  and  _434
REMARK  177  A    between atoms: _434  and  _435
REMARK  178  A    between atoms: _437  and  _439
REMARK  179  A    between atoms: _439  and  _440
REMARK  180  A    between atoms: _439  and  _442
REMARK  181  A    between atoms: _442  and  _443
REMARK  182  A    between atoms: _449  and  _451
REMARK  183  A    between atoms: _451  and  _452
REMARK  184  A    between atoms: _451  and  _454
REMARK  185  A    between atoms: _454  and  _455
REMARK  186  A    between atoms: _458  and  _460
REMARK  187  A    between atoms: _460  and  _461
REMARK  188  A    between atoms: _460  and  _463
REMARK  189  A    between atoms: _463  and  _464
REMARK  190  A    between atoms: _467  and  _469
REMARK  191  A    between atoms: _469  and  _470
REMARK  192  A    between atoms: _469  and  _472
REMARK  193  A    between atoms: _472  and  _473
REMARK  194  A    between atoms: _479  and  _481
REMARK  195  A    between atoms: _481  and  _482
REMARK  196  A    between atoms: _484  and  _486
REMARK  197  A    between atoms: _486  and  _487
REMARK  198  A    between atoms: _486  and  _489
REMARK  199  A    between atoms: _489  and  _490
REMARK  200  A    between atoms: _490  and  _491
REMARK  201  A    between atoms: _491  and  _492
REMARK  202  A    between atoms: _492  and  _493
REMARK  203  A    between atoms: _497  and  _499
REMARK  204  A    between atoms: _499  and  _500
REMARK  205  A    between atoms: _502  and  _504
REMARK  206  A    between atoms: _504  and  _505
REMARK  207  A    between atoms: _504  and  _507
REMARK  208  A    between atoms: _510  and  _512
REMARK  209  A    between atoms: _512  and  _513
REMARK  210  A    between atoms: _515  and  _517
REMARK  211  A    between atoms: _517  and  _518
REMARK  212  A    between atoms: _517  and  _520
REMARK  213  A    between atoms: _520  and  _521
REMARK                            x       y       z     vdW  Elec       q    Type
REMARK                         _______ _______ _______ _____ _____    ______ ____
ROOT
ATOM      1  CA  ASP A   1      -0.364  31.197   4.485  0.00  0.00    +0.144 C 
ENDROOT
BRANCH   1   2
ATOM      2  N   ASP A   1       0.991  31.654   4.116  0.00  0.00    -0.239 NA
ATOM      3  H   ASP A   1       1.827  31.163   4.493  0.00  0.00    +0.142 HD
ENDBRANCH   1   2
BRANCH   1   4
ATOM      4  C   ASP A   1      -1.121  32.266   5.269  0.00  0.00    +0.225 C 
ATOM      5  O   ASP A   1      -2.338  32.411   5.116  0.00  0.00    -0.287 OA
ENDBRANCH   1   4
BRANCH   1   6
ATOM      6  CB  ASP A   1      -0.280  29.945   5.346  0.00  0.00    +0.139 C 
BRANCH   6   7
ATOM      7  CG  ASP A   1       0.007  28.666   4.583  0.00  0.00    +0.367 C 
ATOM      8  OD2 ASP A   1       0.502  27.720   5.205  0.00  0.00    -0.246 OA
ATOM      9  OD1 ASP A   1      -0.342  28.594   3.379  0.00  0.00    -0.246 OA
ENDBRANCH   6   7
ENDBRANCH   1   6
TORSDOF 4
REMARK  Name = ../refined-set-2016/4pow/4pow_pocket.pdb
REMARK  213 active torsions:
REMARK  status: ('A' for Active; 'I' for Inactive)
REMARK    1  A    between atoms: _1  and  _3
REMARK    2  A    between atoms: _3  and  _4
REMARK    3  A    between atoms: _3  and  _6
REMARK    4  A    between atoms: _6  and  _7
REMARK    5  A    between atoms: _10  and  _12
REMARK    6  A    between atoms: _12  and  _13
REMARK    7  A    between atoms: _12  and  _15
REMARK    8  A    between atoms: _15  and  _16
REMARK    9  A    between atoms: _16  and  _17
REMARK   10  A    between atoms: _20  and  _22
REMARK   11  A    between atoms: _22  and  _23
REMARK   12  A    between atoms: _25  and  _27
REMARK   13  A    between atoms: _27  and  _28
REMARK   14  A    between atoms: _27  and  _30
REMARK   15  A    between atoms: _30  and  _31
REMARK   16  A    between atoms: _33  and  _35
REMARK   17  A    between atoms: _35  and  _36
REMARK   18  A    between atoms: _35  and  _38
REMARK   19  A    between atoms: _38  and  _39
REMARK   20  A    between atoms: _44  and  _45
REMARK   21  A    between atoms: _47  and  _49
REMARK   22  A    between atoms: _49  and  _50
REMARK   23  A    between atoms: _54  and  _55
REMARK   24  A    between atoms: _60  and  _62
REMARK   25  A    between atoms: _62  and  _63
REMARK   26  A    between atoms: _62  and  _65
REMARK   27  A    between atoms: _65  and  _66
REMARK   28  A    between atoms: _71  and  _72
REMARK   29  A    between atoms: _74  and  _76
REMARK   30  A    between atoms: _76  and  _77
REMARK   31  A    between atoms: _76  and  _79
REMARK   32  A    between atoms: _79  and  _80
REMARK   33  A    between atoms: _85  and  _87
REMARK   34  A    between atoms: _87  and  _88
REMARK   35  A    between atoms: _87  and  _90
REMARK   36  A    between atoms: _90  and  _91
REMARK   37  A    between atoms: _94  and  _96
REMARK   38  A    between atoms: _96  and  _97
REMARK   39  A    between atoms: _96  and  _99
REMARK   40  A    between atoms: _99  and  _100
REMARK   41  A    between atoms: _100  and  _101
REMARK   42  A    between atoms: _106  and  _108
REMARK   43  A    between atoms: _108  and  _109
REMARK   44  A    between atoms: _112  and  _114
REMARK   45  A    between atoms: _114  and  _115
REMARK   46  A    between atoms: _114  and  _117
REMARK   47  A    between atoms: _117  and  _118
REMARK   48  A    between atoms: _128  and  _130
REMARK   49  A    between atoms: _130  and  _131
REMARK   50  A    between atoms: _130  and  _133
REMARK   51  A    between atoms: _133  and  _134
REMARK   52  A    between atoms: _137  and  _139
REMARK   53  A    between atoms: _139  and  _140
REMARK   54  A    between atoms: _139  and  _142
REMARK   55  A    between atoms: _142  and  _143
REMARK   56  A    between atoms: _146  and  _148
REMARK   57  A    between atoms: _148  and  _149
REMARK   58  A    between atoms: _148  and  _151
REMARK   59  A    between atoms: _151  and  _152
REMARK   60  A    between atoms: _152  and  _153
REMARK   61  A    between atoms: _155  and  _157
REMARK   62  A    between atoms: _157  and  _158
REMARK   63  A    between atoms: _161  and  _163
REMARK   64  A    between atoms: _163  and  _164
REMARK   65  A    between atoms: _167  and  _169
REMARK   66  A    between atoms: _169  and  _170
REMARK   67  A    between atoms: _169  and  _172
REMARK   68  A    between atoms: _172  and  _173
REMARK   69  A    between atoms: _173  and  _174
REMARK   70  A    between atoms: _176  and  _178
REMARK   71  A    between atoms: _178  and  _179
REMARK   72  A    between atoms: _181  and  _183
REMARK   73  A    between atoms: _183  and  _184
REMARK   74  A    between atoms: _183  and  _186
REMARK   75  A    between atoms: _186  and  _187
REMARK   76  A    between atoms: _190  and  _192
REMARK   77  A    between atoms: _192  and  _193
REMARK   78  A    between atoms: _192  and  _195
REMARK   79  A    between atoms: _195  and  _196
REMARK   80  A    between atoms: _196  and  _197
REMARK   81  A    between atoms: _202  and  _204
REMARK   82  A    between atoms: _204  and  _205
REMARK   83  A    between atoms: _204  and  _207
REMARK   84  A    between atoms: _207  and  _208
REMARK   85  A    between atoms: _208  and  _209
REMARK   86  A    between atoms: _209  and  _210
REMARK   87  A    between atoms: _219  and  _221
REMARK   88  A    between atoms: _221  and  _222
REMARK   89  A    between atoms: _221  and  _224
REMARK   90  A    between atoms: _224  and  _225
REMARK   91  A    between atoms: _231  and  _233
REMARK   92  A    between atoms: _233  and  _234
REMARK   93  A    between atoms: _233  and  _236
REMARK   94  A    between atoms: _236  and  _237
REMARK   95  A    between atoms: _240  and  _242
REMARK   96  A    between atoms: _242  and  _243
REMARK   97  A    between atoms: _242  and  _245
REMARK   98  A    between atoms: _245  and  _246
REMARK   99  A    between atoms: _249  and  _251
REMARK  100  A    between atoms: _251  and  _252
REMARK  101  A    between atoms: _251  and  _254
REMARK  102  A    between atoms: _254  and  _255
REMARK  103  A    between atoms: _259  and  _260
REMARK  104  A    between atoms: _265  and  _267
REMARK  105  A    between atoms: _267  and  _268
REMARK  106  A    between atoms: _267  and  _270
REMARK  107  A    between atoms: _270  and  _271
REMARK  108  A    between atoms: _271  and  _272
REMARK  109  A    between atoms: _274  and  _276
REMARK  110  A    between atoms: _276  and  _277
REMARK  111  A    between atoms: _276  and  _279
REMARK  112  A    between atoms: _279  and  _280
REMARK  113  A    between atoms: _283  and  _285
REMARK  114  A    between atoms: _285  and  _286
REMARK  115  A    between atoms: _285  and  _288
REMARK  116  A    between atoms: _288  and  _289
REMARK  117  A    between atoms: _289  and  _290
REMARK  118  A    between atoms: _295  and  _297
REMARK  119  A    between atoms: _297  and  _298
REMARK  120  A    between atoms: _301  and  _303
REMARK  121  A    between atoms: _303  and  _304
REMARK  122  A    between atoms: _306  and  _308
REMARK  123  A    between atoms: _308  and  _309
REMARK  124  A    between atoms: _308  and  _311
REMARK  125  A    between atoms: _311  and  _312
REMARK  126  A    between atoms: _315  and  _317
REMARK  127  A    between atoms: _317  and  _318
REMARK  128  A    between atoms: _317  and  _320
REMARK  129  A    between atoms: _320  and  _321
REMARK  130  A    between atoms: _323  and  _325
REMARK  131  A    between atoms: _325  and  _326
REMARK  132  A    between atoms: _325  and  _328
REMARK  133  A    between atoms: _328  and  _329
REMARK  134  A    between atoms: _334  and  _336
REMARK  135  A    between atoms: _336  and  _337
REMARK  136  A    between atoms: _336  and  _339
REMARK  137  A    between atoms: _339  and  _340
REMARK  138  A    between atoms: _340  and  _341
REMARK  139  A    between atoms: _344  and  _346
REMARK  140  A    between atoms: _346  and  _347
REMARK  141  A    between atoms: _350  and  _352
REMARK  142  A    between atoms: _352  and  _353
REMARK  143  A    between atoms: _352  and  _355
REMARK  144  A    between atoms: _355  and  _356
REMARK  145  A    between atoms: _362  and  _364
REMARK  146  A    between atoms: _364  and  _365
REMARK  147  A    between atoms: _364  and  _367
REMARK  148  A    between atoms: _367  and  _368
REMARK  149  A    between atoms: _371  and  _373
REMARK  150  A    between atoms: _373  and  _374
REMARK  151  A    between atoms: _373  and  _376
REMARK  152  A    between atoms: _376  and  _377
REMARK  153  A    between atoms: _380  and  _382
REMARK  154  A    between atoms: _382  and  _383
REMARK  155  A    between atoms: _382  and  _385
REMARK  156  A    between atoms: _385  and  _386
REMARK  157  A    between atoms: _389  and  _391
REMARK  158  A    between atoms: _391  and  _392
REMARK  159  A    between atoms: _391  and  _394
REMARK  160  A    between atoms: _394  and  _395
REMARK  161  A    between atoms: _398  and  _400
REMARK  162  A    between atoms: _400  and  _401
REMARK  163  A    between atoms: _400  and  _403
REMARK  164  A    between atoms: _403  and  _404
REMARK  165  A    between atoms: _407  and  _409
REMARK  166  A    between atoms: _409  and  _410
REMARK  167  A    between atoms: _413  and  _415
REMARK  168  A    between atoms: _415  and  _416
REMARK  169  A    between atoms: _415  and  _418
REMARK  170  A    between atoms: _418  and  _419
REMARK  171  A    between atoms: _421  and  _423
REMARK  172  A    between atoms: _423  and  _424
REMARK  173  A    between atoms: _423  and  _426
REMARK  174  A    between atoms: _429  and  _431
REMARK  175  A    between atoms: _431  and  _432
REMARK  176  A    between atoms: _431  and  _434
REMARK  177  A    between atoms: _434  and  _435
REMARK  178  A    between atoms: _437  and  _439
REMARK  179  A    between atoms: _439  and  _440
REMARK  180  A    between atoms: _439  and  _442
REMARK  181  A    between atoms: _442  and  _443
REMARK  182  A    between atoms: _449  and  _451
REMARK  183  A    between atoms: _451  and  _452
REMARK  184  A    between atoms: _451  and  _454
REMARK  185  A    between atoms: _454  and  _455
REMARK  186  A    between atoms: _458  and  _460
REMARK  187  A    between atoms: _460  and  _461
REMARK  188  A    between atoms: _460  and  _463
REMARK  189  A    between atoms: _463  and  _464
REMARK  190  A    between atoms: _467  and  _469
REMARK  191  A    between atoms: _469  and  _470
REMARK  192  A    between atoms: _469  and  _472
REMARK  193  A    between atoms: _472  and  _473
REMARK  194  A    between atoms: _479  and  _481
REMARK  195  A    between atoms: _481  and  _482
REMARK  196  A    between atoms: _484  and  _486
REMARK  197  A    between atoms: _486  and  _487
REMARK  198  A    between atoms: _486  and  _489
REMARK  199  A    between atoms: _489  and  _490
REMARK  200  A    between atoms: _490  and  _491
REMARK  201  A    between atoms: _491  and  _492
REMARK  202  A    between atoms: _492  and  _493
REMARK  203  A    between atoms: _497  and  _499
REMARK  204  A    between atoms: _499  and  _500
REMARK  205  A    between atoms: _502  and  _504
REMARK  206  A    between atoms: _504  and  _505
REMARK  207  A    between atoms: _504  and  _507
REMARK  208  A    between atoms: _510  and  _512
REMARK  209  A    between atoms: _512  and  _513
REMARK  210  A    between atoms: _515  and  _517
REMARK  211  A    between atoms: _517  and  _518
REMARK  212  A    between atoms: _517  and  _520
REMARK  213  A    between atoms: _520  and  _521
REMARK                            x       y       z     vdW  Elec       q    Type
REMARK                         _______ _______ _______ _____ _____    ______ ____
ROOT
ATOM      1  C   ALA A   2       0.273  20.436  15.213  0.00  0.00    +0.241 C 
ATOM      2  O   ALA A   2      -0.920  20.123  15.149  0.00  0.00    -0.273 OA
ATOM      3  N   TRP A   3       1.175  20.043  14.326  0.00  0.00    -0.298 N 
ATOM      4  H   TRP A   3       2.168  20.317  14.467  0.00  0.00    +0.150 HD
ENDROOT
BRANCH   1   5
ATOM      5  CA  ALA A   2       0.798  21.334  16.337  0.00  0.00    +0.149 C 
ATOM      6  CB  ALA A   2       1.180  20.484  17.540  0.00  0.00    +0.031 C 
BRANCH   5   8
ATOM      7  C   GLN A   1      -0.682  23.184  15.799  0.00  0.00    +0.238 C 
ATOM      8  N   ALA A   2      -0.214  22.321  16.714  0.00  0.00    -0.297 N 
ATOM      9  H   ALA A   2      -0.570  22.354  17.690  0.00  0.00    +0.150 HD
ATOM     10  O   GLN A   1      -0.280  23.232  14.624  0.00  0.00    -0.274 OA
BRANCH   7  11
ATOM     11  CA  GLN A   1      -1.777  24.115  16.262  0.00  0.00    +0.145 C 
BRANCH  11  12
ATOM     12  N   GLN A   1      -1.415  25.487  15.957  0.00  0.00    -0.238 NA
ATOM     13  H   GLN A   1      -0.859  25.675  15.099  0.00  0.00    +0.142 HD
ENDBRANCH  11  12
BRANCH  11  14
ATOM     14  CB  GLN A   1      -3.102  23.789  15.574  0.00  0.00    +0.036 C 
BRANCH  14  15
ATOM     15  CG  GLN A   1      -3.506  22.318  15.584  0.00  0.00    +0.087 C 
BRANCH  15  16
ATOM     16  CD  GLN A   1      -3.699  21.707  16.934  0.00  0.00    +0.219 C 
ATOM     17  NE2 GLN A   1      -4.461  22.371  17.787  0.00  0.00    -0.329 N 
ATOM     18 HE21 GLN A   1      -4.641  21.982  18.735  0.00  0.00    +0.145 HD
ATOM     19 HE22 GLN A   1      -4.880  23.282  17.510  0.00  0.00    +0.145 HD
ATOM     20  OE1 GLN A   1      -3.176  20.617  17.215  0.00  0.00    -0.275 OA
ENDBRANCH  15  16
ENDBRANCH  14  15
ENDBRANCH  11  14
ENDBRANCH   7  11
ENDBRANCH   5   8
ENDBRANCH   1   5
BRANCH   3  21
ATOM     21  CA  TRP A   3       0.827  19.241  13.161  0.00  0.00    +0.141 C 
BRANCH  21  22
ATOM     22  C   TRP A   3       0.061  17.956  13.496  0.00  0.00    +0.227 C 
ATOM     23  O   TRP A   3      -0.918  17.662  12.820  0.00  0.00    -0.286 OA
ENDBRANCH  21  22
BRANCH  21  24
ATOM     24  CB  TRP A   3       2.108  18.933  12.363  0.00  0.00    +0.056 C 
BRANCH  24  25
ATOM     25  CG  TRP A   3       1.832  18.331  11.021  0.00  0.00    -0.002 A 
ATOM     26  CD1 TRP A   3       2.036  17.032  10.646  0.00  0.00    +0.068 A 
ATOM     27  NE1 TRP A   3       1.643  16.857   9.328  0.00  0.00    -0.352 N 
ATOM     28  CE2 TRP A   3       1.139  18.045   8.846  0.00  0.00    +0.056 A 
ATOM     29  CZ2 TRP A   3       0.625  18.378   7.574  0.00  0.00    +0.017 A 
ATOM     30  CH2 TRP A   3       0.200  19.669   7.370  0.00  0.00    +0.001 A 
ATOM     31  CZ3 TRP A   3       0.242  20.620   8.389  0.00  0.00    +0.000 A 
ATOM     32  CE3 TRP A   3       0.764  20.309   9.644  0.00  0.00    +0.001 A 
ATOM     33  HE1 TRP A   3       1.717  15.970   8.789  0.00  0.00    +0.166 HD
ATOM     34  CD2 TRP A   3       1.228  18.992   9.891  0.00  0.00    +0.013 A 
ENDBRANCH  24  25
ENDBRANCH  21  24
ENDBRANCH   3  21
TORSDOF 11
REMARK  Name = ../refined-set-2016/4pow/4pow_pocket.pdb
REMARK  213 active torsions:
REMARK  status: ('A' for Active; 'I' for Inactive)
REMARK    1  A    between atoms: _1  and  _3
REMARK    2  A    between atoms: _3  and  _4
REMARK    3  A    between atoms: _3  and  _6
REMARK    4  A    between atoms: _6  and  _7
REMARK    5  A    between atoms: _10  and  _12
REMARK    6  A    between atoms: _12  and  _13
REMARK    7  A    between atoms: _12  and  _15
REMARK    8  A    between atoms: _15  and  _16
REMARK    9  A    between atoms: _16  and  _17
REMARK   10  A    between atoms: _20  and  _22
REMARK   11  A    between atoms: _22  and  _23
REMARK   12  A    between atoms: _25  and  _27
REMARK   13  A    between atoms: _27  and  _28
REMARK   14  A    between atoms: _27  and  _30
REMARK   15  A    between atoms: _30  and  _31
REMARK   16  A    between atoms: _33  and  _35
REMARK   17  A    between atoms: _35  and  _36
REMARK   18  A    between atoms: _35  and  _38
REMARK   19  A    between atoms: _38  and  _39
REMARK   20  A    between atoms: _44  and  _45
REMARK   21  A    between atoms: _47  and  _49
REMARK   22  A    between atoms: _49  and  _50
REMARK   23  A    between atoms: _54  and  _55
REMARK   24  A    between atoms: _60  and  _62
REMARK   25  A    between atoms: _62  and  _63
REMARK   26  A    between atoms: _62  and  _65
REMARK   27  A    between atoms: _65  and  _66
REMARK   28  A    between atoms: _71  and  _72
REMARK   29  A    between atoms: _74  and  _76
REMARK   30  A    between atoms: _76  and  _77
REMARK   31  A    between atoms: _76  and  _79
REMARK   32  A    between atoms: _79  and  _80
REMARK   33  A    between atoms: _85  and  _87
REMARK   34  A    between atoms: _87  and  _88
REMARK   35  A    between atoms: _87  and  _90
REMARK   36  A    between atoms: _90  and  _91
REMARK   37  A    between atoms: _94  and  _96
REMARK   38  A    between atoms: _96  and  _97
REMARK   39  A    between atoms: _96  and  _99
REMARK   40  A    between atoms: _99  and  _100
REMARK   41  A    between atoms: _100  and  _101
REMARK   42  A    between atoms: _106  and  _108
REMARK   43  A    between atoms: _108  and  _109
REMARK   44  A    between atoms: _112  and  _114
REMARK   45  A    between atoms: _114  and  _115
REMARK   46  A    between atoms: _114  and  _117
REMARK   47  A    between atoms: _117  and  _118
REMARK   48  A    between atoms: _128  and  _130
REMARK   49  A    between atoms: _130  and  _131
REMARK   50  A    between atoms: _130  and  _133
REMARK   51  A    between atoms: _133  and  _134
REMARK   52  A    between atoms: _137  and  _139
REMARK   53  A    between atoms: _139  and  _140
REMARK   54  A    between atoms: _139  and  _142
REMARK   55  A    between atoms: _142  and  _143
REMARK   56  A    between atoms: _146  and  _148
REMARK   57  A    between atoms: _148  and  _149
REMARK   58  A    between atoms: _148  and  _151
REMARK   59  A    between atoms: _151  and  _152
REMARK   60  A    between atoms: _152  and  _153
REMARK   61  A    between atoms: _155  and  _157
REMARK   62  A    between atoms: _157  and  _158
REMARK   63  A    between atoms: _161  and  _163
REMARK   64  A    between atoms: _163  and  _164
REMARK   65  A    between atoms: _167  and  _169
REMARK   66  A    between atoms: _169  and  _170
REMARK   67  A    between atoms: _169  and  _172
REMARK   68  A    between atoms: _172  and  _173
REMARK   69  A    between atoms: _173  and  _174
REMARK   70  A    between atoms: _176  and  _178
REMARK   71  A    between atoms: _178  and  _179
REMARK   72  A    between atoms: _181  and  _183
REMARK   73  A    between atoms: _183  and  _184
REMARK   74  A    between atoms: _183  and  _186
REMARK   75  A    between atoms: _186  and  _187
REMARK   76  A    between atoms: _190  and  _192
REMARK   77  A    between atoms: _192  and  _193
REMARK   78  A    between atoms: _192  and  _195
REMARK   79  A    between atoms: _195  and  _196
REMARK   80  A    between atoms: _196  and  _197
REMARK   81  A    between atoms: _202  and  _204
REMARK   82  A    between atoms: _204  and  _205
REMARK   83  A    between atoms: _204  and  _207
REMARK   84  A    between atoms: _207  and  _208
REMARK   85  A    between atoms: _208  and  _209
REMARK   86  A    between atoms: _209  and  _210
REMARK   87  A    between atoms: _219  and  _221
REMARK   88  A    between atoms: _221  and  _222
REMARK   89  A    between atoms: _221  and  _224
REMARK   90  A    between atoms: _224  and  _225
REMARK   91  A    between atoms: _231  and  _233
REMARK   92  A    between atoms: _233  and  _234
REMARK   93  A    between atoms: _233  and  _236
REMARK   94  A    between atoms: _236  and  _237
REMARK   95  A    between atoms: _240  and  _242
REMARK   96  A    between atoms: _242  and  _243
REMARK   97  A    between atoms: _242  and  _245
REMARK   98  A    between atoms: _245  and  _246
REMARK   99  A    between atoms: _249  and  _251
REMARK  100  A    between atoms: _251  and  _252
REMARK  101  A    between atoms: _251  and  _254
REMARK  102  A    between atoms: _254  and  _255
REMARK  103  A    between atoms: _259  and  _260
REMARK  104  A    between atoms: _265  and  _267
REMARK  105  A    between atoms: _267  and  _268
REMARK  106  A    between atoms: _267  and  _270
REMARK  107  A    between atoms: _270  and  _271
REMARK  108  A    between atoms: _271  and  _272
REMARK  109  A    between atoms: _274  and  _276
REMARK  110  A    between atoms: _276  and  _277
REMARK  111  A    between atoms: _276  and  _279
REMARK  112  A    between atoms: _279  and  _280
REMARK  113  A    between atoms: _283  and  _285
REMARK  114  A    between atoms: _285  and  _286
REMARK  115  A    between atoms: _285  and  _288
REMARK  116  A    between atoms: _288  and  _289
REMARK  117  A    between atoms: _289  and  _290
REMARK  118  A    between atoms: _295  and  _297
REMARK  119  A    between atoms: _297  and  _298
REMARK  120  A    between atoms: _301  and  _303
REMARK  121  A    between atoms: _303  and  _304
REMARK  122  A    between atoms: _306  and  _308
REMARK  123  A    between atoms: _308  and  _309
REMARK  124  A    between atoms: _308  and  _311
REMARK  125  A    between atoms: _311  and  _312
REMARK  126  A    between atoms: _315  and  _317
REMARK  127  A    between atoms: _317  and  _318
REMARK  128  A    between atoms: _317  and  _320
REMARK  129  A    between atoms: _320  and  _321
REMARK  130  A    between atoms: _323  and  _325
REMARK  131  A    between atoms: _325  and  _326
REMARK  132  A    between atoms: _325  and  _328
REMARK  133  A    between atoms: _328  and  _329
REMARK  134  A    between atoms: _334  and  _336
REMARK  135  A    between atoms: _336  and  _337
REMARK  136  A    between atoms: _336  and  _339
REMARK  137  A    between atoms: _339  and  _340
REMARK  138  A    between atoms: _340  and  _341
REMARK  139  A    between atoms: _344  and  _346
REMARK  140  A    between atoms: _346  and  _347
REMARK  141  A    between atoms: _350  and  _352
REMARK  142  A    between atoms: _352  and  _353
REMARK  143  A    between atoms: _352  and  _355
REMARK  144  A    between atoms: _355  and  _356
REMARK  145  A    between atoms: _362  and  _364
REMARK  146  A    between atoms: _364  and  _365
REMARK  147  A    between atoms: _364  and  _367
REMARK  148  A    between atoms: _367  and  _368
REMARK  149  A    between atoms: _371  and  _373
REMARK  150  A    between atoms: _373  and  _374
REMARK  151  A    between atoms: _373  and  _376
REMARK  152  A    between atoms: _376  and  _377
REMARK  153  A    between atoms: _380  and  _382
REMARK  154  A    between atoms: _382  and  _383
REMARK  155  A    between atoms: _382  and  _385
REMARK  156  A    between atoms: _385  and  _386
REMARK  157  A    between atoms: _389  and  _391
REMARK  158  A    between atoms: _391  and  _392
REMARK  159  A    between atoms: _391  and  _394
REMARK  160  A    between atoms: _394  and  _395
REMARK  161  A    between atoms: _398  and  _400
REMARK  162  A    between atoms: _400  and  _401
REMARK  163  A    between atoms: _400  and  _403
REMARK  164  A    between atoms: _403  and  _404
REMARK  165  A    between atoms: _407  and  _409
REMARK  166  A    between atoms: _409  and  _410
REMARK  167  A    between atoms: _413  and  _415
REMARK  168  A    between atoms: _415  and  _416
REMARK  169  A    between atoms: _415  and  _418
REMARK  170  A    between atoms: _418  and  _419
REMARK  171  A    between atoms: _421  and  _423
REMARK  172  A    between atoms: _423  and  _424
REMARK  173  A    between atoms: _423  and  _426
REMARK  174  A    between atoms: _429  and  _431
REMARK  175  A    between atoms: _431  and  _432
REMARK  176  A    between atoms: _431  and  _434
REMARK  177  A    between atoms: _434  and  _435
REMARK  178  A    between atoms: _437  and  _439
REMARK  179  A    between atoms: _439  and  _440
REMARK  180  A    between atoms: _439  and  _442
REMARK  181  A    between atoms: _442  and  _443
REMARK  182  A    between atoms: _449  and  _451
REMARK  183  A    between atoms: _451  and  _452
REMARK  184  A    between atoms: _451  and  _454
REMARK  185  A    between atoms: _454  and  _455
REMARK  186  A    between atoms: _458  and  _460
REMARK  187  A    between atoms: _460  and  _461
REMARK  188  A    between atoms: _460  and  _463
REMARK  189  A    between atoms: _463  and  _464
REMARK  190  A    between atoms: _467  and  _469
REMARK  191  A    between atoms: _469  and  _470
REMARK  192  A    between atoms: _469  and  _472
REMARK  193  A    between atoms: _472  and  _473
REMARK  194  A    between atoms: _479  and  _481
REMARK  195  A    between atoms: _481  and  _482
REMARK  196  A    between atoms: _484  and  _486
REMARK  197  A    between atoms: _486  and  _487
REMARK  198  A    between atoms: _486  and  _489
REMARK  199  A    between atoms: _489  and  _490
REMARK  200  A    between atoms: _490  and  _491
REMARK  201  A    between atoms: _491  and  _492
REMARK  202  A    between atoms: _492  and  _493
REMARK  203  A    between atoms: _497  and  _499
REMARK  204  A    between atoms: _499  and  _500
REMARK  205  A    between atoms: _502  and  _504
REMARK  206  A    between atoms: _504  and  _505
REMARK  207  A    between atoms: _504  and  _507
REMARK  208  A    between atoms: _510  and  _512
REMARK  209  A    between atoms: _512  and  _513
REMARK  210  A    between atoms: _515  and  _517
REMARK  211  A    between atoms: _517  and  _518
REMARK  212  A    between atoms: _517  and  _520
REMARK  213  A    between atoms: _520  and  _521
REMARK                            x       y       z     vdW  Elec       q    Type
REMARK                         _______ _______ _______ _____ _____    ______ ____
ROOT
ATOM      1  CA  ILE A   1      -4.323  19.625  13.169  0.00  0.00    +0.133 C 
ENDROOT
BRANCH   1   2
ATOM      2  N   ILE A   1      -3.710  18.546  13.944  0.00  0.00    -0.239 NA
ATOM      3  H   ILE A   1      -2.766  18.190  13.692  0.00  0.00    +0.142 HD
ENDBRANCH   1   2
BRANCH   1   4
ATOM      4  C   ILE A   1      -5.616  19.207  12.449  0.00  0.00    +0.224 C 
ATOM      5  O   ILE A   1      -6.565  19.987  12.390  0.00  0.00    -0.287 OA
ENDBRANCH   1   4
BRANCH   1   6
ATOM      6  CB  ILE A   1      -3.284  20.354  12.267  0.00  0.00    +0.023 C 
ATOM      7  CG2 ILE A   1      -2.873  19.526  11.016  0.00  0.00    +0.002 C 
BRANCH   6   8
ATOM      8  CG1 ILE A   1      -3.771  21.769  11.915  0.00  0.00    +0.002 C 
ATOM      9  CD1 ILE A   1      -2.618  22.668  11.410  0.00  0.00    +0.000 C 
ENDBRANCH   6   8
ENDBRANCH   1   6
TORSDOF 4
REMARK  Name = ../refined-set-2016/4pow/4pow_pocket.pdb
REMARK  213 active torsions:
REMARK  status: ('A' for Active; 'I' for Inactive)
REMARK    1  A    between atoms: _1  and  _3
REMARK    2  A    between atoms: _3  and  _4
REMARK    3  A    between atoms: _3  and  _6
REMARK    4  A    between atoms: _6  and  _7
REMARK    5  A    between atoms: _10  and  _12
REMARK    6  A    between atoms: _12  and  _13
REMARK    7  A    between atoms: _12  and  _15
REMARK    8  A    between atoms: _15  and  _16
REMARK    9  A    between atoms: _16  and  _17
REMARK   10  A    between atoms: _20  and  _22
REMARK   11  A    between atoms: _22  and  _23
REMARK   12  A    between atoms: _25  and  _27
REMARK   13  A    between atoms: _27  and  _28
REMARK   14  A    between atoms: _27  and  _30
REMARK   15  A    between atoms: _30  and  _31
REMARK   16  A    between atoms: _33  and  _35
REMARK   17  A    between atoms: _35  and  _36
REMARK   18  A    between atoms: _35  and  _38
REMARK   19  A    between atoms: _38  and  _39
REMARK   20  A    between atoms: _44  and  _45
REMARK   21  A    between atoms: _47  and  _49
REMARK   22  A    between atoms: _49  and  _50
REMARK   23  A    between atoms: _54  and  _55
REMARK   24  A    between atoms: _60  and  _62
REMARK   25  A    between atoms: _62  and  _63
REMARK   26  A    between atoms: _62  and  _65
REMARK   27  A    between atoms: _65  and  _66
REMARK   28  A    between atoms: _71  and  _72
REMARK   29  A    between atoms: _74  and  _76
REMARK   30  A    between atoms: _76  and  _77
REMARK   31  A    between atoms: _76  and  _79
REMARK   32  A    between atoms: _79  and  _80
REMARK   33  A    between atoms: _85  and  _87
REMARK   34  A    between atoms: _87  and  _88
REMARK   35  A    between atoms: _87  and  _90
REMARK   36  A    between atoms: _90  and  _91
REMARK   37  A    between atoms: _94  and  _96
REMARK   38  A    between atoms: _96  and  _97
REMARK   39  A    between atoms: _96  and  _99
REMARK   40  A    between atoms: _99  and  _100
REMARK   41  A    between atoms: _100  and  _101
REMARK   42  A    between atoms: _106  and  _108
REMARK   43  A    between atoms: _108  and  _109
REMARK   44  A    between atoms: _112  and  _114
REMARK   45  A    between atoms: _114  and  _115
REMARK   46  A    between atoms: _114  and  _117
REMARK   47  A    between atoms: _117  and  _118
REMARK   48  A    between atoms: _128  and  _130
REMARK   49  A    between atoms: _130  and  _131
REMARK   50  A    between atoms: _130  and  _133
REMARK   51  A    between atoms: _133  and  _134
REMARK   52  A    between atoms: _137  and  _139
REMARK   53  A    between atoms: _139  and  _140
REMARK   54  A    between atoms: _139  and  _142
REMARK   55  A    between atoms: _142  and  _143
REMARK   56  A    between atoms: _146  and  _148
REMARK   57  A    between atoms: _148  and  _149
REMARK   58  A    between atoms: _148  and  _151
REMARK   59  A    between atoms: _151  and  _152
REMARK   60  A    between atoms: _152  and  _153
REMARK   61  A    between atoms: _155  and  _157
REMARK   62  A    between atoms: _157  and  _158
REMARK   63  A    between atoms: _161  and  _163
REMARK   64  A    between atoms: _163  and  _164
REMARK   65  A    between atoms: _167  and  _169
REMARK   66  A    between atoms: _169  and  _170
REMARK   67  A    between atoms: _169  and  _172
REMARK   68  A    between atoms: _172  and  _173
REMARK   69  A    between atoms: _173  and  _174
REMARK   70  A    between atoms: _176  and  _178
REMARK   71  A    between atoms: _178  and  _179
REMARK   72  A    between atoms: _181  and  _183
REMARK   73  A    between atoms: _183  and  _184
REMARK   74  A    between atoms: _183  and  _186
REMARK   75  A    between atoms: _186  and  _187
REMARK   76  A    between atoms: _190  and  _192
REMARK   77  A    between atoms: _192  and  _193
REMARK   78  A    between atoms: _192  and  _195
REMARK   79  A    between atoms: _195  and  _196
REMARK   80  A    between atoms: _196  and  _197
REMARK   81  A    between atoms: _202  and  _204
REMARK   82  A    between atoms: _204  and  _205
REMARK   83  A    between atoms: _204  and  _207
REMARK   84  A    between atoms: _207  and  _208
REMARK   85  A    between atoms: _208  and  _209
REMARK   86  A    between atoms: _209  and  _210
REMARK   87  A    between atoms: _219  and  _221
REMARK   88  A    between atoms: _221  and  _222
REMARK   89  A    between atoms: _221  and  _224
REMARK   90  A    between atoms: _224  and  _225
REMARK   91  A    between atoms: _231  and  _233
REMARK   92  A    between atoms: _233  and  _234
REMARK   93  A    between atoms: _233  and  _236
REMARK   94  A    between atoms: _236  and  _237
REMARK   95  A    between atoms: _240  and  _242
REMARK   96  A    between atoms: _242  and  _243
REMARK   97  A    between atoms: _242  and  _245
REMARK   98  A    between atoms: _245  and  _246
REMARK   99  A    between atoms: _249  and  _251
REMARK  100  A    between atoms: _251  and  _252
REMARK  101  A    between atoms: _251  and  _254
REMARK  102  A    between atoms: _254  and  _255
REMARK  103  A    between atoms: _259  and  _260
REMARK  104  A    between atoms: _265  and  _267
REMARK  105  A    between atoms: _267  and  _268
REMARK  106  A    between atoms: _267  and  _270
REMARK  107  A    between atoms: _270  and  _271
REMARK  108  A    between atoms: _271  and  _272
REMARK  109  A    between atoms: _274  and  _276
REMARK  110  A    between atoms: _276  and  _277
REMARK  111  A    between atoms: _276  and  _279
REMARK  112  A    between atoms: _279  and  _280
REMARK  113  A    between atoms: _283  and  _285
REMARK  114  A    between atoms: _285  and  _286
REMARK  115  A    between atoms: _285  and  _288
REMARK  116  A    between atoms: _288  and  _289
REMARK  117  A    between atoms: _289  and  _290
REMARK  118  A    between atoms: _295  and  _297
REMARK  119  A    between atoms: _297  and  _298
REMARK  120  A    between atoms: _301  and  _303
REMARK  121  A    between atoms: _303  and  _304
REMARK  122  A    between atoms: _306  and  _308
REMARK  123  A    between atoms: _308  and  _309
REMARK  124  A    between atoms: _308  and  _311
REMARK  125  A    between atoms: _311  and  _312
REMARK  126  A    between atoms: _315  and  _317
REMARK  127  A    between atoms: _317  and  _318
REMARK  128  A    between atoms: _317  and  _320
REMARK  129  A    between atoms: _320  and  _321
REMARK  130  A    between atoms: _323  and  _325
REMARK  131  A    between atoms: _325  and  _326
REMARK  132  A    between atoms: _325  and  _328
REMARK  133  A    between atoms: _328  and  _329
REMARK  134  A    between atoms: _334  and  _336
REMARK  135  A    between atoms: _336  and  _337
REMARK  136  A    between atoms: _336  and  _339
REMARK  137  A    between atoms: _339  and  _340
REMARK  138  A    between atoms: _340  and  _341
REMARK  139  A    between atoms: _344  and  _346
REMARK  140  A    between atoms: _346  and  _347
REMARK  141  A    between atoms: _350  and  _352
REMARK  142  A    between atoms: _352  and  _353
REMARK  143  A    between atoms: _352  and  _355
REMARK  144  A    between atoms: _355  and  _356
REMARK  145  A    between atoms: _362  and  _364
REMARK  146  A    between atoms: _364  and  _365
REMARK  147  A    between atoms: _364  and  _367
REMARK  148  A    between atoms: _367  and  _368
REMARK  149  A    between atoms: _371  and  _373
REMARK  150  A    between atoms: _373  and  _374
REMARK  151  A    between atoms: _373  and  _376
REMARK  152  A    between atoms: _376  and  _377
REMARK  153  A    between atoms: _380  and  _382
REMARK  154  A    between atoms: _382  and  _383
REMARK  155  A    between atoms: _382  and  _385
REMARK  156  A    between atoms: _385  and  _386
REMARK  157  A    between atoms: _389  and  _391
REMARK  158  A    between atoms: _391  and  _392
REMARK  159  A    between atoms: _391  and  _394
REMARK  160  A    between atoms: _394  and  _395
REMARK  161  A    between atoms: _398  and  _400
REMARK  162  A    between atoms: _400  and  _401
REMARK  163  A    between atoms: _400  and  _403
REMARK  164  A    between atoms: _403  and  _404
REMARK  165  A    between atoms: _407  and  _409
REMARK  166  A    between atoms: _409  and  _410
REMARK  167  A    between atoms: _413  and  _415
REMARK  168  A    between atoms: _415  and  _416
REMARK  169  A    between atoms: _415  and  _418
REMARK  170  A    between atoms: _418  and  _419
REMARK  171  A    between atoms: _421  and  _423
REMARK  172  A    between atoms: _423  and  _424
REMARK  173  A    between atoms: _423  and  _426
REMARK  174  A    between atoms: _429  and  _431
REMARK  175  A    between atoms: _431  and  _432
REMARK  176  A    between atoms: _431  and  _434
REMARK  177  A    between atoms: _434  and  _435
REMARK  178  A    between atoms: _437  and  _439
REMARK  179  A    between atoms: _439  and  _440
REMARK  180  A    between atoms: _439  and  _442
REMARK  181  A    between atoms: _442  and  _443
REMARK  182  A    between atoms: _449  and  _451
REMARK  183  A    between atoms: _451  and  _452
REMARK  184  A    between atoms: _451  and  _454
REMARK  185  A    between atoms: _454  and  _455
REMARK  186  A    between atoms: _458  and  _460
REMARK  187  A    between atoms: _460  and  _461
REMARK  188  A    between atoms: _460  and  _463
REMARK  189  A    between atoms: _463  and  _464
REMARK  190  A    between atoms: _467  and  _469
REMARK  191  A    between atoms: _469  and  _470
REMARK  192  A    between atoms: _469  and  _472
REMARK  193  A    between atoms: _472  and  _473
REMARK  194  A    between atoms: _479  and  _481
REMARK  195  A    between atoms: _481  and  _482
REMARK  196  A    between atoms: _484  and  _486
REMARK  197  A    between atoms: _486  and  _487
REMARK  198  A    between atoms: _486  and  _489
REMARK  199  A    between atoms: _489  and  _490
REMARK  200  A    between atoms: _490  and  _491
REMARK  201  A    between atoms: _491  and  _492
REMARK  202  A    between atoms: _492  and  _493
REMARK  203  A    between atoms: _497  and  _499
REMARK  204  A    between atoms: _499  and  _500
REMARK  205  A    between atoms: _502  and  _504
REMARK  206  A    between atoms: _504  and  _505
REMARK  207  A    between atoms: _504  and  _507
REMARK  208  A    between atoms: _510  and  _512
REMARK  209  A    between atoms: _512  and  _513
REMARK  210  A    between atoms: _515  and  _517
REMARK  211  A    between atoms: _517  and  _518
REMARK  212  A    between atoms: _517  and  _520
REMARK  213  A    between atoms: _520  and  _521
REMARK                            x       y       z     vdW  Elec       q    Type
REMARK                         _______ _______ _______ _____ _____    ______ ____
ROOT
ATOM      1  CA  MET A   5      -1.199  21.257   3.625  0.00  0.00    +0.149 C 
ENDROOT
BRANCH   1   3
ATOM      2  C   ALA A   4       0.691  22.785   3.633  0.00  0.00    +0.241 C 
ATOM      3  N   MET A   5      -0.625  22.579   3.694  0.00  0.00    -0.297 N 
ATOM      4  H   MET A   5      -1.258  23.398   3.795  0.00  0.00    +0.150 HD
ATOM      5  O   ALA A   4       1.495  21.877   3.473  0.00  0.00    -0.273 OA
BRANCH   2   6
ATOM      6  CA  ALA A   4       1.186  24.205   3.819  0.00  0.00    +0.149 C 
ATOM      7  CB  ALA A   4       2.665  24.187   4.178  0.00  0.00    +0.031 C 
BRANCH   6  10
ATOM      8  C   ALA A   3       0.213  24.378   6.092  0.00  0.00    +0.241 C 
ATOM      9  O   ALA A   3       0.736  23.309   6.466  0.00  0.00    -0.273 OA
ATOM     10  N   ALA A   4       0.388  24.890   4.867  0.00  0.00    -0.297 N 
ATOM     11  H   ALA A   4      -0.053  25.804   4.641  0.00  0.00    +0.150 HD
BRANCH   8  12
ATOM     12  CA  ALA A   3      -0.640  25.199   7.030  0.00  0.00    +0.149 C 
ATOM     13  CB  ALA A   3      -0.961  24.382   8.289  0.00  0.00    +0.031 C 
BRANCH  12  16
ATOM     14  C   MET A   2      -2.534  26.706   6.763  0.00  0.00    +0.241 C 
ATOM     15  O   MET A   2      -2.097  27.483   7.627  0.00  0.00    -0.273 OA
ATOM     16  N   ALA A   3      -1.887  25.606   6.379  0.00  0.00    -0.297 N 
ATOM     17  H   ALA A   3      -2.273  25.028   5.606  0.00  0.00    +0.150 HD
BRANCH  14  18
ATOM     18  CA  MET A   2      -3.907  26.910   6.188  0.00  0.00    +0.149 C 
BRANCH  18  20
ATOM     19  C   ILE A   1      -5.785  25.541   6.954  0.00  0.00    +0.238 C 
ATOM     20  N   MET A   2      -4.798  26.406   7.239  0.00  0.00    -0.297 N 
ATOM     21  H   MET A   2      -4.663  26.724   8.220  0.00  0.00    +0.150 HD
ATOM     22  O   ILE A   1      -6.090  25.240   5.806  0.00  0.00    -0.274 OA
BRANCH  19  23
ATOM     23  CA  ILE A   1      -6.503  24.889   8.128  0.00  0.00    +0.145 C 
BRANCH  23  24
ATOM     24  N   ILE A   1      -7.933  25.079   7.943  0.00  0.00    -0.238 NA
ATOM     25  H   ILE A   1      -8.376  24.714   7.076  0.00  0.00    +0.142 HD
ENDBRANCH  23  24
BRANCH  23  26
ATOM     26  CB  ILE A   1      -6.129  23.370   8.147  0.00  0.00    +0.025 C 
ATOM     27  CG2 ILE A   1      -4.611  23.165   8.170  0.00  0.00    +0.002 C 
BRANCH  26  28
ATOM     28  CG1 ILE A   1      -6.771  22.654   9.326  0.00  0.00    +0.002 C 
ATOM     29  CD1 ILE A   1      -6.762  21.129   9.167  0.00  0.00    +0.000 C 
ENDBRANCH  26  28
ENDBRANCH  23  26
ENDBRANCH  19  23
ENDBRANCH  18  20
BRANCH  18  30
ATOM     30  CB  MET A   2      -4.185  28.379   5.857  0.00  0.00    +0.041 C 
BRANCH  30  31
ATOM     31  CG  MET A   2      -5.509  28.547   5.162  0.00  0.00    +0.060 C 
BRANCH  31  32
ATOM     32  SD  MET A   2      -5.811  30.232   4.609  0.00  0.00    -0.139 S 
ATOM     33  CE  MET A   2      -4.602  30.397   3.299  0.00  0.00    +0.069 C 
ENDBRANCH  31  32
ENDBRANCH  30  31
ENDBRANCH  18  30
ENDBRANCH  14  18
ENDBRANCH  12  16
ENDBRANCH   8  12
ENDBRANCH   6  10
ENDBRANCH   2   6
ENDBRANCH   1   3
BRANCH   1  34
ATOM     34  C   MET A   5      -1.489  20.797   2.204  0.00  0.00    +0.241 C 
ATOM     35  N   GLY A   6      -0.798  19.735   1.802  0.00  0.00    -0.295 N 
ATOM     36  H   GLY A   6      -0.085  19.309   2.428  0.00  0.00    +0.150 HD
ATOM     37  O   MET A   5      -2.334  21.366   1.500  0.00  0.00    -0.273 OA
BRANCH  35  38
ATOM     38  CA  GLY A   6      -1.043  19.169   0.478  0.00  0.00    +0.176 C 
BRANCH  38  39
ATOM     39  C   GLY A   6      -2.431  18.558   0.379  0.00  0.00    +0.243 C 
ATOM     40  O   GLY A   6      -2.951  17.970   1.347  0.00  0.00    -0.273 OA
ATOM     41  N   ILE A   7      -3.067  18.741  -0.803  0.00  0.00    -0.297 N 
ATOM     42  H   ILE A   7      -2.604  19.294  -1.552  0.00  0.00    +0.150 HD
BRANCH  41  43
ATOM     43  CA  ILE A   7      -4.397  18.172  -1.044  0.00  0.00    +0.149 C 
BRANCH  43  44
ATOM     44  C   ILE A   7      -4.141  16.760  -1.481  0.00  0.00    +0.241 C 
ATOM     45  N   GLN A   8      -4.215  15.852  -0.574  0.00  0.00    -0.298 N 
ATOM     46  H   GLN A   8      -4.557  16.093   0.378  0.00  0.00    +0.150 HD
ATOM     47  O   ILE A   7      -3.805  16.521  -2.635  0.00  0.00    -0.273 OA
BRANCH  45  48
ATOM     48  CA  GLN A   8      -3.822  14.496  -0.882  0.00  0.00    +0.137 C 
BRANCH  48  49
ATOM     49  C   GLN A   8      -4.902  13.527  -0.629  0.00  0.00    +0.227 C 
ATOM     50  O   GLN A   8      -5.753  13.741   0.235  0.00  0.00    -0.286 OA
ENDBRANCH  48  49
BRANCH  48  51
ATOM     51  CB  GLN A   8      -2.590  14.116  -0.126  0.00  0.00    +0.037 C 
BRANCH  51  52
ATOM     52  CG  GLN A   8      -2.675  14.417   1.323  0.00  0.00    +0.087 C 
BRANCH  52  53
ATOM     53  CD  GLN A   8      -1.839  13.482   2.111  0.00  0.00    +0.219 C 
ATOM     54  NE2 GLN A   8      -2.511  12.585   2.788  0.00  0.00    -0.329 N 
ATOM     55 HE21 GLN A   8      -2.009  11.917   3.407  0.00  0.00    +0.145 HD
ATOM     56 HE22 GLN A   8      -3.547  12.541   2.707  0.00  0.00    +0.145 HD
ATOM     57  OE1 GLN A   8      -0.611  13.589   2.161  0.00  0.00    -0.275 OA
ENDBRANCH  52  53
ENDBRANCH  51  52
ENDBRANCH  48  51
ENDBRANCH  45  48
ENDBRANCH  43  44
BRANCH  43  58
ATOM     58  CB  ILE A   7      -5.108  18.970  -2.147  0.00  0.00    +0.027 C 
ATOM     59  CG2 ILE A   7      -6.484  18.341  -2.392  0.00  0.00    +0.002 C 
BRANCH  58  60
ATOM     60  CG1 ILE A   7      -5.247  20.464  -1.754  0.00  0.00    +0.002 C 
ATOM     61  CD1 ILE A   7      -5.704  21.384  -2.928  0.00  0.00    +0.000 C 
ENDBRANCH  58  60
ENDBRANCH  43  58
ENDBRANCH  41  43
ENDBRANCH  38  39
ENDBRANCH  35  38
ENDBRANCH   1  34
BRANCH   1  62
ATOM     62  CB  MET A   5      -2.480  21.200   4.470  0.00  0.00    +0.041 C 
BRANCH  62  63
ATOM     63  CG  MET A   5      -2.993  19.778   4.599  0.00  0.00    +0.060 C 
BRANCH  63  64
ATOM     64  SD  MET A   5      -4.365  19.634   5.773  0.00  0.00    -0.139 S 
ATOM     65  CE  MET A   5      -3.426  19.510   7.309  0.00  0.00    +0.069 C 
ENDBRANCH  63  64
ENDBRANCH  62  63
ENDBRANCH   1  62
TORSDOF 29
REMARK  Name = ../refined-set-2016/4pow/4pow_pocket.pdb
REMARK  213 active torsions:
REMARK  status: ('A' for Active; 'I' for Inactive)
REMARK    1  A    between atoms: _1  and  _3
REMARK    2  A    between atoms: _3  and  _4
REMARK    3  A    between atoms: _3  and  _6
REMARK    4  A    between atoms: _6  and  _7
REMARK    5  A    between atoms: _10  and  _12
REMARK    6  A    between atoms: _12  and  _13
REMARK    7  A    between atoms: _12  and  _15
REMARK    8  A    between atoms: _15  and  _16
REMARK    9  A    between atoms: _16  and  _17
REMARK   10  A    between atoms: _20  and  _22
REMARK   11  A    between atoms: _22  and  _23
REMARK   12  A    between atoms: _25  and  _27
REMARK   13  A    between atoms: _27  and  _28
REMARK   14  A    between atoms: _27  and  _30
REMARK   15  A    between atoms: _30  and  _31
REMARK   16  A    between atoms: _33  and  _35
REMARK   17  A    between atoms: _35  and  _36
REMARK   18  A    between atoms: _35  and  _38
REMARK   19  A    between atoms: _38  and  _39
REMARK   20  A    between atoms: _44  and  _45
REMARK   21  A    between atoms: _47  and  _49
REMARK   22  A    between atoms: _49  and  _50
REMARK   23  A    between atoms: _54  and  _55
REMARK   24  A    between atoms: _60  and  _62
REMARK   25  A    between atoms: _62  and  _63
REMARK   26  A    between atoms: _62  and  _65
REMARK   27  A    between atoms: _65  and  _66
REMARK   28  A    between atoms: _71  and  _72
REMARK   29  A    between atoms: _74  and  _76
REMARK   30  A    between atoms: _76  and  _77
REMARK   31  A    between atoms: _76  and  _79
REMARK   32  A    between atoms: _79  and  _80
REMARK   33  A    between atoms: _85  and  _87
REMARK   34  A    between atoms: _87  and  _88
REMARK   35  A    between atoms: _87  and  _90
REMARK   36  A    between atoms: _90  and  _91
REMARK   37  A    between atoms: _94  and  _96
REMARK   38  A    between atoms: _96  and  _97
REMARK   39  A    between atoms: _96  and  _99
REMARK   40  A    between atoms: _99  and  _100
REMARK   41  A    between atoms: _100  and  _101
REMARK   42  A    between atoms: _106  and  _108
REMARK   43  A    between atoms: _108  and  _109
REMARK   44  A    between atoms: _112  and  _114
REMARK   45  A    between atoms: _114  and  _115
REMARK   46  A    between atoms: _114  and  _117
REMARK   47  A    between atoms: _117  and  _118
REMARK   48  A    between atoms: _128  and  _130
REMARK   49  A    between atoms: _130  and  _131
REMARK   50  A    between atoms: _130  and  _133
REMARK   51  A    between atoms: _133  and  _134
REMARK   52  A    between atoms: _137  and  _139
REMARK   53  A    between atoms: _139  and  _140
REMARK   54  A    between atoms: _139  and  _142
REMARK   55  A    between atoms: _142  and  _143
REMARK   56  A    between atoms: _146  and  _148
REMARK   57  A    between atoms: _148  and  _149
REMARK   58  A    between atoms: _148  and  _151
REMARK   59  A    between atoms: _151  and  _152
REMARK   60  A    between atoms: _152  and  _153
REMARK   61  A    between atoms: _155  and  _157
REMARK   62  A    between atoms: _157  and  _158
REMARK   63  A    between atoms: _161  and  _163
REMARK   64  A    between atoms: _163  and  _164
REMARK   65  A    between atoms: _167  and  _169
REMARK   66  A    between atoms: _169  and  _170
REMARK   67  A    between atoms: _169  and  _172
REMARK   68  A    between atoms: _172  and  _173
REMARK   69  A    between atoms: _173  and  _174
REMARK   70  A    between atoms: _176  and  _178
REMARK   71  A    between atoms: _178  and  _179
REMARK   72  A    between atoms: _181  and  _183
REMARK   73  A    between atoms: _183  and  _184
REMARK   74  A    between atoms: _183  and  _186
REMARK   75  A    between atoms: _186  and  _187
REMARK   76  A    between atoms: _190  and  _192
REMARK   77  A    between atoms: _192  and  _193
REMARK   78  A    between atoms: _192  and  _195
REMARK   79  A    between atoms: _195  and  _196
REMARK   80  A    between atoms: _196  and  _197
REMARK   81  A    between atoms: _202  and  _204
REMARK   82  A    between atoms: _204  and  _205
REMARK   83  A    between atoms: _204  and  _207
REMARK   84  A    between atoms: _207  and  _208
REMARK   85  A    between atoms: _208  and  _209
REMARK   86  A    between atoms: _209  and  _210
REMARK   87  A    between atoms: _219  and  _221
REMARK   88  A    between atoms: _221  and  _222
REMARK   89  A    between atoms: _221  and  _224
REMARK   90  A    between atoms: _224  and  _225
REMARK   91  A    between atoms: _231  and  _233
REMARK   92  A    between atoms: _233  and  _234
REMARK   93  A    between atoms: _233  and  _236
REMARK   94  A    between atoms: _236  and  _237
REMARK   95  A    between atoms: _240  and  _242
REMARK   96  A    between atoms: _242  and  _243
REMARK   97  A    between atoms: _242  and  _245
REMARK   98  A    between atoms: _245  and  _246
REMARK   99  A    between atoms: _249  and  _251
REMARK  100  A    between atoms: _251  and  _252
REMARK  101  A    between atoms: _251  and  _254
REMARK  102  A    between atoms: _254  and  _255
REMARK  103  A    between atoms: _259  and  _260
REMARK  104  A    between atoms: _265  and  _267
REMARK  105  A    between atoms: _267  and  _268
REMARK  106  A    between atoms: _267  and  _270
REMARK  107  A    between atoms: _270  and  _271
REMARK  108  A    between atoms: _271  and  _272
REMARK  109  A    between atoms: _274  and  _276
REMARK  110  A    between atoms: _276  and  _277
REMARK  111  A    between atoms: _276  and  _279
REMARK  112  A    between atoms: _279  and  _280
REMARK  113  A    between atoms: _283  and  _285
REMARK  114  A    between atoms: _285  and  _286
REMARK  115  A    between atoms: _285  and  _288
REMARK  116  A    between atoms: _288  and  _289
REMARK  117  A    between atoms: _289  and  _290
REMARK  118  A    between atoms: _295  and  _297
REMARK  119  A    between atoms: _297  and  _298
REMARK  120  A    between atoms: _301  and  _303
REMARK  121  A    between atoms: _303  and  _304
REMARK  122  A    between atoms: _306  and  _308
REMARK  123  A    between atoms: _308  and  _309
REMARK  124  A    between atoms: _308  and  _311
REMARK  125  A    between atoms: _311  and  _312
REMARK  126  A    between atoms: _315  and  _317
REMARK  127  A    between atoms: _317  and  _318
REMARK  128  A    between atoms: _317  and  _320
REMARK  129  A    between atoms: _320  and  _321
REMARK  130  A    between atoms: _323  and  _325
REMARK  131  A    between atoms: _325  and  _326
REMARK  132  A    between atoms: _325  and  _328
REMARK  133  A    between atoms: _328  and  _329
REMARK  134  A    between atoms: _334  and  _336
REMARK  135  A    between atoms: _336  and  _337
REMARK  136  A    between atoms: _336  and  _339
REMARK  137  A    between atoms: _339  and  _340
REMARK  138  A    between atoms: _340  and  _341
REMARK  139  A    between atoms: _344  and  _346
REMARK  140  A    between atoms: _346  and  _347
REMARK  141  A    between atoms: _350  and  _352
REMARK  142  A    between atoms: _352  and  _353
REMARK  143  A    between atoms: _352  and  _355
REMARK  144  A    between atoms: _355  and  _356
REMARK  145  A    between atoms: _362  and  _364
REMARK  146  A    between atoms: _364  and  _365
REMARK  147  A    between atoms: _364  and  _367
REMARK  148  A    between atoms: _367  and  _368
REMARK  149  A    between atoms: _371  and  _373
REMARK  150  A    between atoms: _373  and  _374
REMARK  151  A    between atoms: _373  and  _376
REMARK  152  A    between atoms: _376  and  _377
REMARK  153  A    between atoms: _380  and  _382
REMARK  154  A    between atoms: _382  and  _383
REMARK  155  A    between atoms: _382  and  _385
REMARK  156  A    between atoms: _385  and  _386
REMARK  157  A    between atoms: _389  and  _391
REMARK  158  A    between atoms: _391  and  _392
REMARK  159  A    between atoms: _391  and  _394
REMARK  160  A    between atoms: _394  and  _395
REMARK  161  A    between atoms: _398  and  _400
REMARK  162  A    between atoms: _400  and  _401
REMARK  163  A    between atoms: _400  and  _403
REMARK  164  A    between atoms: _403  and  _404
REMARK  165  A    between atoms: _407  and  _409
REMARK  166  A    between atoms: _409  and  _410
REMARK  167  A    between atoms: _413  and  _415
REMARK  168  A    between atoms: _415  and  _416
REMARK  169  A    between atoms: _415  and  _418
REMARK  170  A    between atoms: _418  and  _419
REMARK  171  A    between atoms: _421  and  _423
REMARK  172  A    between atoms: _423  and  _424
REMARK  173  A    between atoms: _423  and  _426
REMARK  174  A    between atoms: _429  and  _431
REMARK  175  A    between atoms: _431  and  _432
REMARK  176  A    between atoms: _431  and  _434
REMARK  177  A    between atoms: _434  and  _435
REMARK  178  A    between atoms: _437  and  _439
REMARK  179  A    between atoms: _439  and  _440
REMARK  180  A    between atoms: _439  and  _442
REMARK  181  A    between atoms: _442  and  _443
REMARK  182  A    between atoms: _449  and  _451
REMARK  183  A    between atoms: _451  and  _452
REMARK  184  A    between atoms: _451  and  _454
REMARK  185  A    between atoms: _454  and  _455
REMARK  186  A    between atoms: _458  and  _460
REMARK  187  A    between atoms: _460  and  _461
REMARK  188  A    between atoms: _460  and  _463
REMARK  189  A    between atoms: _463  and  _464
REMARK  190  A    between atoms: _467  and  _469
REMARK  191  A    between atoms: _469  and  _470
REMARK  192  A    between atoms: _469  and  _472
REMARK  193  A    between atoms: _472  and  _473
REMARK  194  A    between atoms: _479  and  _481
REMARK  195  A    between atoms: _481  and  _482
REMARK  196  A    between atoms: _484  and  _486
REMARK  197  A    between atoms: _486  and  _487
REMARK  198  A    between atoms: _486  and  _489
REMARK  199  A    between atoms: _489  and  _490
REMARK  200  A    between atoms: _490  and  _491
REMARK  201  A    between atoms: _491  and  _492
REMARK  202  A    between atoms: _492  and  _493
REMARK  203  A    between atoms: _497  and  _499
REMARK  204  A    between atoms: _499  and  _500
REMARK  205  A    between atoms: _502  and  _504
REMARK  206  A    between atoms: _504  and  _505
REMARK  207  A    between atoms: _504  and  _507
REMARK  208  A    between atoms: _510  and  _512
REMARK  209  A    between atoms: _512  and  _513
REMARK  210  A    between atoms: _515  and  _517
REMARK  211  A    between atoms: _517  and  _518
REMARK  212  A    between atoms: _517  and  _520
REMARK  213  A    between atoms: _520  and  _521
REMARK                            x       y       z     vdW  Elec       q    Type
REMARK                         _______ _______ _______ _____ _____    ______ ____
ROOT
ATOM      1  NE  ARG A   1      -2.368  15.773   5.121  0.00  0.00    -0.265 N 
ATOM      2  HE  ARG A   1      -2.351  15.293   6.044  0.00  0.00    +0.259 HD
ATOM      3  CZ  ARG A   1      -1.199  16.177   4.619  0.00  0.00    +0.342 C 
ATOM      4  NH2 ARG A   1      -0.066  15.895   5.251  0.00  0.00    -0.292 N 
ATOM      5 HH21 ARG A   1      -0.087  15.357   6.141  0.00  0.00    +0.255 HD
ATOM      6 HH22 ARG A   1       0.842  16.212   4.856  0.00  0.00    +0.255 HD
ATOM      7  NH1 ARG A   1      -1.156  16.879   3.485  0.00  0.00    -0.292 N 
ATOM      8 HH11 ARG A   1      -0.241  17.190   3.100  0.00  0.00    +0.255 HD
ATOM      9 HH12 ARG A   1      -2.037  17.115   2.986  0.00  0.00    +0.255 HD
ENDROOT
BRANCH   1  10
ATOM     10  CD  ARG A   1      -3.669  15.949   4.481  0.00  0.00    +0.174 C 
BRANCH  10  11
ATOM     11  CG  ARG A   1      -4.439  14.666   4.571  0.00  0.00    +0.045 C 
BRANCH  11  12
ATOM     12  CB  ARG A   1      -5.760  14.794   3.840  0.00  0.00    +0.029 C 
BRANCH  12  13
ATOM     13  CA  ARG A   1      -6.529  13.480   3.841  0.00  0.00    +0.133 C 
BRANCH  13  14
ATOM     14  N   ARG A   1      -5.831  12.465   3.056  0.00  0.00    -0.239 NA
ATOM     15  H   ARG A   1      -5.042  12.732   2.433  0.00  0.00    +0.142 HD
ENDBRANCH  13  14
BRANCH  13  16
ATOM     16  C   ARG A   1      -7.923  13.739   3.325  0.00  0.00    +0.224 C 
ATOM     17  O   ARG A   1      -8.794  14.116   4.110  0.00  0.00    -0.287 OA
ENDBRANCH  13  16
ENDBRANCH  12  13
ENDBRANCH  11  12
ENDBRANCH  10  11
ENDBRANCH   1  10
TORSDOF 6
REMARK  Name = ../refined-set-2016/4pow/4pow_pocket.pdb
REMARK  213 active torsions:
REMARK  status: ('A' for Active; 'I' for Inactive)
REMARK    1  A    between atoms: _1  and  _3
REMARK    2  A    between atoms: _3  and  _4
REMARK    3  A    between atoms: _3  and  _6
REMARK    4  A    between atoms: _6  and  _7
REMARK    5  A    between atoms: _10  and  _12
REMARK    6  A    between atoms: _12  and  _13
REMARK    7  A    between atoms: _12  and  _15
REMARK    8  A    between atoms: _15  and  _16
REMARK    9  A    between atoms: _16  and  _17
REMARK   10  A    between atoms: _20  and  _22
REMARK   11  A    between atoms: _22  and  _23
REMARK   12  A    between atoms: _25  and  _27
REMARK   13  A    between atoms: _27  and  _28
REMARK   14  A    between atoms: _27  and  _30
REMARK   15  A    between atoms: _30  and  _31
REMARK   16  A    between atoms: _33  and  _35
REMARK   17  A    between atoms: _35  and  _36
REMARK   18  A    between atoms: _35  and  _38
REMARK   19  A    between atoms: _38  and  _39
REMARK   20  A    between atoms: _44  and  _45
REMARK   21  A    between atoms: _47  and  _49
REMARK   22  A    between atoms: _49  and  _50
REMARK   23  A    between atoms: _54  and  _55
REMARK   24  A    between atoms: _60  and  _62
REMARK   25  A    between atoms: _62  and  _63
REMARK   26  A    between atoms: _62  and  _65
REMARK   27  A    between atoms: _65  and  _66
REMARK   28  A    between atoms: _71  and  _72
REMARK   29  A    between atoms: _74  and  _76
REMARK   30  A    between atoms: _76  and  _77
REMARK   31  A    between atoms: _76  and  _79
REMARK   32  A    between atoms: _79  and  _80
REMARK   33  A    between atoms: _85  and  _87
REMARK   34  A    between atoms: _87  and  _88
REMARK   35  A    between atoms: _87  and  _90
REMARK   36  A    between atoms: _90  and  _91
REMARK   37  A    between atoms: _94  and  _96
REMARK   38  A    between atoms: _96  and  _97
REMARK   39  A    between atoms: _96  and  _99
REMARK   40  A    between atoms: _99  and  _100
REMARK   41  A    between atoms: _100  and  _101
REMARK   42  A    between atoms: _106  and  _108
REMARK   43  A    between atoms: _108  and  _109
REMARK   44  A    between atoms: _112  and  _114
REMARK   45  A    between atoms: _114  and  _115
REMARK   46  A    between atoms: _114  and  _117
REMARK   47  A    between atoms: _117  and  _118
REMARK   48  A    between atoms: _128  and  _130
REMARK   49  A    between atoms: _130  and  _131
REMARK   50  A    between atoms: _130  and  _133
REMARK   51  A    between atoms: _133  and  _134
REMARK   52  A    between atoms: _137  and  _139
REMARK   53  A    between atoms: _139  and  _140
REMARK   54  A    between atoms: _139  and  _142
REMARK   55  A    between atoms: _142  and  _143
REMARK   56  A    between atoms: _146  and  _148
REMARK   57  A    between atoms: _148  and  _149
REMARK   58  A    between atoms: _148  and  _151
REMARK   59  A    between atoms: _151  and  _152
REMARK   60  A    between atoms: _152  and  _153
REMARK   61  A    between atoms: _155  and  _157
REMARK   62  A    between atoms: _157  and  _158
REMARK   63  A    between atoms: _161  and  _163
REMARK   64  A    between atoms: _163  and  _164
REMARK   65  A    between atoms: _167  and  _169
REMARK   66  A    between atoms: _169  and  _170
REMARK   67  A    between atoms: _169  and  _172
REMARK   68  A    between atoms: _172  and  _173
REMARK   69  A    between atoms: _173  and  _174
REMARK   70  A    between atoms: _176  and  _178
REMARK   71  A    between atoms: _178  and  _179
REMARK   72  A    between atoms: _181  and  _183
REMARK   73  A    between atoms: _183  and  _184
REMARK   74  A    between atoms: _183  and  _186
REMARK   75  A    between atoms: _186  and  _187
REMARK   76  A    between atoms: _190  and  _192
REMARK   77  A    between atoms: _192  and  _193
REMARK   78  A    between atoms: _192  and  _195
REMARK   79  A    between atoms: _195  and  _196
REMARK   80  A    between atoms: _196  and  _197
REMARK   81  A    between atoms: _202  and  _204
REMARK   82  A    between atoms: _204  and  _205
REMARK   83  A    between atoms: _204  and  _207
REMARK   84  A    between atoms: _207  and  _208
REMARK   85  A    between atoms: _208  and  _209
REMARK   86  A    between atoms: _209  and  _210
REMARK   87  A    between atoms: _219  and  _221
REMARK   88  A    between atoms: _221  and  _222
REMARK   89  A    between atoms: _221  and  _224
REMARK   90  A    between atoms: _224  and  _225
REMARK   91  A    between atoms: _231  and  _233
REMARK   92  A    between atoms: _233  and  _234
REMARK   93  A    between atoms: _233  and  _236
REMARK   94  A    between atoms: _236  and  _237
REMARK   95  A    between atoms: _240  and  _242
REMARK   96  A    between atoms: _242  and  _243
REMARK   97  A    between atoms: _242  and  _245
REMARK   98  A    between atoms: _245  and  _246
REMARK   99  A    between atoms: _249  and  _251
REMARK  100  A    between atoms: _251  and  _252
REMARK  101  A    between atoms: _251  and  _254
REMARK  102  A    between atoms: _254  and  _255
REMARK  103  A    between atoms: _259  and  _260
REMARK  104  A    between atoms: _265  and  _267
REMARK  105  A    between atoms: _267  and  _268
REMARK  106  A    between atoms: _267  and  _270
REMARK  107  A    between atoms: _270  and  _271
REMARK  108  A    between atoms: _271  and  _272
REMARK  109  A    between atoms: _274  and  _276
REMARK  110  A    between atoms: _276  and  _277
REMARK  111  A    between atoms: _276  and  _279
REMARK  112  A    between atoms: _279  and  _280
REMARK  113  A    between atoms: _283  and  _285
REMARK  114  A    between atoms: _285  and  _286
REMARK  115  A    between atoms: _285  and  _288
REMARK  116  A    between atoms: _288  and  _289
REMARK  117  A    between atoms: _289  and  _290
REMARK  118  A    between atoms: _295  and  _297
REMARK  119  A    between atoms: _297  and  _298
REMARK  120  A    between atoms: _301  and  _303
REMARK  121  A    between atoms: _303  and  _304
REMARK  122  A    between atoms: _306  and  _308
REMARK  123  A    between atoms: _308  and  _309
REMARK  124  A    between atoms: _308  and  _311
REMARK  125  A    between atoms: _311  and  _312
REMARK  126  A    between atoms: _315  and  _317
REMARK  127  A    between atoms: _317  and  _318
REMARK  128  A    between atoms: _317  and  _320
REMARK  129  A    between atoms: _320  and  _321
REMARK  130  A    between atoms: _323  and  _325
REMARK  131  A    between atoms: _325  and  _326
REMARK  132  A    between atoms: _325  and  _328
REMARK  133  A    between atoms: _328  and  _329
REMARK  134  A    between atoms: _334  and  _336
REMARK  135  A    between atoms: _336  and  _337
REMARK  136  A    between atoms: _336  and  _339
REMARK  137  A    between atoms: _339  and  _340
REMARK  138  A    between atoms: _340  and  _341
REMARK  139  A    between atoms: _344  and  _346
REMARK  140  A    between atoms: _346  and  _347
REMARK  141  A    between atoms: _350  and  _352
REMARK  142  A    between atoms: _352  and  _353
REMARK  143  A    between atoms: _352  and  _355
REMARK  144  A    between atoms: _355  and  _356
REMARK  145  A    between atoms: _362  and  _364
REMARK  146  A    between atoms: _364  and  _365
REMARK  147  A    between atoms: _364  and  _367
REMARK  148  A    between atoms: _367  and  _368
REMARK  149  A    between atoms: _371  and  _373
REMARK  150  A    between atoms: _373  and  _374
REMARK  151  A    between atoms: _373  and  _376
REMARK  152  A    between atoms: _376  and  _377
REMARK  153  A    between atoms: _380  and  _382
REMARK  154  A    between atoms: _382  and  _383
REMARK  155  A    between atoms: _382  and  _385
REMARK  156  A    between atoms: _385  and  _386
REMARK  157  A    between atoms: _389  and  _391
REMARK  158  A    between atoms: _391  and  _392
REMARK  159  A    between atoms: _391  and  _394
REMARK  160  A    between atoms: _394  and  _395
REMARK  161  A    between atoms: _398  and  _400
REMARK  162  A    between atoms: _400  and  _401
REMARK  163  A    between atoms: _400  and  _403
REMARK  164  A    between atoms: _403  and  _404
REMARK  165  A    between atoms: _407  and  _409
REMARK  166  A    between atoms: _409  and  _410
REMARK  167  A    between atoms: _413  and  _415
REMARK  168  A    between atoms: _415  and  _416
REMARK  169  A    between atoms: _415  and  _418
REMARK  170  A    between atoms: _418  and  _419
REMARK  171  A    between atoms: _421  and  _423
REMARK  172  A    between atoms: _423  and  _424
REMARK  173  A    between atoms: _423  and  _426
REMARK  174  A    between atoms: _429  and  _431
REMARK  175  A    between atoms: _431  and  _432
REMARK  176  A    between atoms: _431  and  _434
REMARK  177  A    between atoms: _434  and  _435
REMARK  178  A    between atoms: _437  and  _439
REMARK  179  A    between atoms: _439  and  _440
REMARK  180  A    between atoms: _439  and  _442
REMARK  181  A    between atoms: _442  and  _443
REMARK  182  A    between atoms: _449  and  _451
REMARK  183  A    between atoms: _451  and  _452
REMARK  184  A    between atoms: _451  and  _454
REMARK  185  A    between atoms: _454  and  _455
REMARK  186  A    between atoms: _458  and  _460
REMARK  187  A    between atoms: _460  and  _461
REMARK  188  A    between atoms: _460  and  _463
REMARK  189  A    between atoms: _463  and  _464
REMARK  190  A    between atoms: _467  and  _469
REMARK  191  A    between atoms: _469  and  _470
REMARK  192  A    between atoms: _469  and  _472
REMARK  193  A    between atoms: _472  and  _473
REMARK  194  A    between atoms: _479  and  _481
REMARK  195  A    between atoms: _481  and  _482
REMARK  196  A    between atoms: _484  and  _486
REMARK  197  A    between atoms: _486  and  _487
REMARK  198  A    between atoms: _486  and  _489
REMARK  199  A    between atoms: _489  and  _490
REMARK  200  A    between atoms: _490  and  _491
REMARK  201  A    between atoms: _491  and  _492
REMARK  202  A    between atoms: _492  and  _493
REMARK  203  A    between atoms: _497  and  _499
REMARK  204  A    between atoms: _499  and  _500
REMARK  205  A    between atoms: _502  and  _504
REMARK  206  A    between atoms: _504  and  _505
REMARK  207  A    between atoms: _504  and  _507
REMARK  208  A    between atoms: _510  and  _512
REMARK  209  A    between atoms: _512  and  _513
REMARK  210  A    between atoms: _515  and  _517
REMARK  211  A    between atoms: _517  and  _518
REMARK  212  A    between atoms: _517  and  _520
REMARK  213  A    between atoms: _520  and  _521
REMARK                            x       y       z     vdW  Elec       q    Type
REMARK                         _______ _______ _______ _____ _____    ______ ____
ROOT
ATOM      1  CB  PHE A   1      -8.848  20.512  -0.058  0.00  0.00    +0.051 C 
ENDROOT
BRANCH   1   2
ATOM      2  CG  PHE A   1      -7.990  19.763   0.923  0.00  0.00    -0.020 A 
ATOM      3  CD2 PHE A   1      -7.026  20.426   1.673  0.00  0.00    -0.004 A 
ATOM      4  CE2 PHE A   1      -6.236  19.742   2.581  0.00  0.00    -0.000 A 
ATOM      5  CZ  PHE A   1      -6.359  18.371   2.715  0.00  0.00    -0.000 A 
ATOM      6  CE1 PHE A   1      -7.281  17.688   1.957  0.00  0.00    -0.000 A 
ATOM      7  CD1 PHE A   1      -8.114  18.387   1.072  0.00  0.00    -0.004 A 
ENDBRANCH   1   2
BRANCH   1   8
ATOM      8  CA  PHE A   1     -10.103  21.097   0.599  0.00  0.00    +0.137 C 
BRANCH   8   9
ATOM      9  N   PHE A   1     -11.079  20.067   0.865  0.00  0.00    -0.239 NA
ATOM     10  H   PHE A   1     -11.596  19.630   0.076  0.00  0.00    +0.142 HD
ENDBRANCH   8   9
BRANCH   8  11
ATOM     11  C   PHE A   1     -10.674  22.099  -0.350  0.00  0.00    +0.224 C 
ATOM     12  O   PHE A   1     -11.468  21.757  -1.241  0.00  0.00    -0.287 OA
ENDBRANCH   8  11
ENDBRANCH   1   8
TORSDOF 4
REMARK  Name = ../refined-set-2016/4pow/4pow_pocket.pdb
REMARK  213 active torsions:
REMARK  status: ('A' for Active; 'I' for Inactive)
REMARK    1  A    between atoms: _1  and  _3
REMARK    2  A    between atoms: _3  and  _4
REMARK    3  A    between atoms: _3  and  _6
REMARK    4  A    between atoms: _6  and  _7
REMARK    5  A    between atoms: _10  and  _12
REMARK    6  A    between atoms: _12  and  _13
REMARK    7  A    between atoms: _12  and  _15
REMARK    8  A    between atoms: _15  and  _16
REMARK    9  A    between atoms: _16  and  _17
REMARK   10  A    between atoms: _20  and  _22
REMARK   11  A    between atoms: _22  and  _23
REMARK   12  A    between atoms: _25  and  _27
REMARK   13  A    between atoms: _27  and  _28
REMARK   14  A    between atoms: _27  and  _30
REMARK   15  A    between atoms: _30  and  _31
REMARK   16  A    between atoms: _33  and  _35
REMARK   17  A    between atoms: _35  and  _36
REMARK   18  A    between atoms: _35  and  _38
REMARK   19  A    between atoms: _38  and  _39
REMARK   20  A    between atoms: _44  and  _45
REMARK   21  A    between atoms: _47  and  _49
REMARK   22  A    between atoms: _49  and  _50
REMARK   23  A    between atoms: _54  and  _55
REMARK   24  A    between atoms: _60  and  _62
REMARK   25  A    between atoms: _62  and  _63
REMARK   26  A    between atoms: _62  and  _65
REMARK   27  A    between atoms: _65  and  _66
REMARK   28  A    between atoms: _71  and  _72
REMARK   29  A    between atoms: _74  and  _76
REMARK   30  A    between atoms: _76  and  _77
REMARK   31  A    between atoms: _76  and  _79
REMARK   32  A    between atoms: _79  and  _80
REMARK   33  A    between atoms: _85  and  _87
REMARK   34  A    between atoms: _87  and  _88
REMARK   35  A    between atoms: _87  and  _90
REMARK   36  A    between atoms: _90  and  _91
REMARK   37  A    between atoms: _94  and  _96
REMARK   38  A    between atoms: _96  and  _97
REMARK   39  A    between atoms: _96  and  _99
REMARK   40  A    between atoms: _99  and  _100
REMARK   41  A    between atoms: _100  and  _101
REMARK   42  A    between atoms: _106  and  _108
REMARK   43  A    between atoms: _108  and  _109
REMARK   44  A    between atoms: _112  and  _114
REMARK   45  A    between atoms: _114  and  _115
REMARK   46  A    between atoms: _114  and  _117
REMARK   47  A    between atoms: _117  and  _118
REMARK   48  A    between atoms: _128  and  _130
REMARK   49  A    between atoms: _130  and  _131
REMARK   50  A    between atoms: _130  and  _133
REMARK   51  A    between atoms: _133  and  _134
REMARK   52  A    between atoms: _137  and  _139
REMARK   53  A    between atoms: _139  and  _140
REMARK   54  A    between atoms: _139  and  _142
REMARK   55  A    between atoms: _142  and  _143
REMARK   56  A    between atoms: _146  and  _148
REMARK   57  A    between atoms: _148  and  _149
REMARK   58  A    between atoms: _148  and  _151
REMARK   59  A    between atoms: _151  and  _152
REMARK   60  A    between atoms: _152  and  _153
REMARK   61  A    between atoms: _155  and  _157
REMARK   62  A    between atoms: _157  and  _158
REMARK   63  A    between atoms: _161  and  _163
REMARK   64  A    between atoms: _163  and  _164
REMARK   65  A    between atoms: _167  and  _169
REMARK   66  A    between atoms: _169  and  _170
REMARK   67  A    between atoms: _169  and  _172
REMARK   68  A    between atoms: _172  and  _173
REMARK   69  A    between atoms: _173  and  _174
REMARK   70  A    between atoms: _176  and  _178
REMARK   71  A    between atoms: _178  and  _179
REMARK   72  A    between atoms: _181  and  _183
REMARK   73  A    between atoms: _183  and  _184
REMARK   74  A    between atoms: _183  and  _186
REMARK   75  A    between atoms: _186  and  _187
REMARK   76  A    between atoms: _190  and  _192
REMARK   77  A    between atoms: _192  and  _193
REMARK   78  A    between atoms: _192  and  _195
REMARK   79  A    between atoms: _195  and  _196
REMARK   80  A    between atoms: _196  and  _197
REMARK   81  A    between atoms: _202  and  _204
REMARK   82  A    between atoms: _204  and  _205
REMARK   83  A    between atoms: _204  and  _207
REMARK   84  A    between atoms: _207  and  _208
REMARK   85  A    between atoms: _208  and  _209
REMARK   86  A    between atoms: _209  and  _210
REMARK   87  A    between atoms: _219  and  _221
REMARK   88  A    between atoms: _221  and  _222
REMARK   89  A    between atoms: _221  and  _224
REMARK   90  A    between atoms: _224  and  _225
REMARK   91  A    between atoms: _231  and  _233
REMARK   92  A    between atoms: _233  and  _234
REMARK   93  A    between atoms: _233  and  _236
REMARK   94  A    between atoms: _236  and  _237
REMARK   95  A    between atoms: _240  and  _242
REMARK   96  A    between atoms: _242  and  _243
REMARK   97  A    between atoms: _242  and  _245
REMARK   98  A    between atoms: _245  and  _246
REMARK   99  A    between atoms: _249  and  _251
REMARK  100  A    between atoms: _251  and  _252
REMARK  101  A    between atoms: _251  and  _254
REMARK  102  A    between atoms: _254  and  _255
REMARK  103  A    between atoms: _259  and  _260
REMARK  104  A    between atoms: _265  and  _267
REMARK  105  A    between atoms: _267  and  _268
REMARK  106  A    between atoms: _267  and  _270
REMARK  107  A    between atoms: _270  and  _271
REMARK  108  A    between atoms: _271  and  _272
REMARK  109  A    between atoms: _274  and  _276
REMARK  110  A    between atoms: _276  and  _277
REMARK  111  A    between atoms: _276  and  _279
REMARK  112  A    between atoms: _279  and  _280
REMARK  113  A    between atoms: _283  and  _285
REMARK  114  A    between atoms: _285  and  _286
REMARK  115  A    between atoms: _285  and  _288
REMARK  116  A    between atoms: _288  and  _289
REMARK  117  A    between atoms: _289  and  _290
REMARK  118  A    between atoms: _295  and  _297
REMARK  119  A    between atoms: _297  and  _298
REMARK  120  A    between atoms: _301  and  _303
REMARK  121  A    between atoms: _303  and  _304
REMARK  122  A    between atoms: _306  and  _308
REMARK  123  A    between atoms: _308  and  _309
REMARK  124  A    between atoms: _308  and  _311
REMARK  125  A    between atoms: _311  and  _312
REMARK  126  A    between atoms: _315  and  _317
REMARK  127  A    between atoms: _317  and  _318
REMARK  128  A    between atoms: _317  and  _320
REMARK  129  A    between atoms: _320  and  _321
REMARK  130  A    between atoms: _323  and  _325
REMARK  131  A    between atoms: _325  and  _326
REMARK  132  A    between atoms: _325  and  _328
REMARK  133  A    between atoms: _328  and  _329
REMARK  134  A    between atoms: _334  and  _336
REMARK  135  A    between atoms: _336  and  _337
REMARK  136  A    between atoms: _336  and  _339
REMARK  137  A    between atoms: _339  and  _340
REMARK  138  A    between atoms: _340  and  _341
REMARK  139  A    between atoms: _344  and  _346
REMARK  140  A    between atoms: _346  and  _347
REMARK  141  A    between atoms: _350  and  _352
REMARK  142  A    between atoms: _352  and  _353
REMARK  143  A    between atoms: _352  and  _355
REMARK  144  A    between atoms: _355  and  _356
REMARK  145  A    between atoms: _362  and  _364
REMARK  146  A    between atoms: _364  and  _365
REMARK  147  A    between atoms: _364  and  _367
REMARK  148  A    between atoms: _367  and  _368
REMARK  149  A    between atoms: _371  and  _373
REMARK  150  A    between atoms: _373  and  _374
REMARK  151  A    between atoms: _373  and  _376
REMARK  152  A    between atoms: _376  and  _377
REMARK  153  A    between atoms: _380  and  _382
REMARK  154  A    between atoms: _382  and  _383
REMARK  155  A    between atoms: _382  and  _385
REMARK  156  A    between atoms: _385  and  _386
REMARK  157  A    between atoms: _389  and  _391
REMARK  158  A    between atoms: _391  and  _392
REMARK  159  A    between atoms: _391  and  _394
REMARK  160  A    between atoms: _394  and  _395
REMARK  161  A    between atoms: _398  and  _400
REMARK  162  A    between atoms: _400  and  _401
REMARK  163  A    between atoms: _400  and  _403
REMARK  164  A    between atoms: _403  and  _404
REMARK  165  A    between atoms: _407  and  _409
REMARK  166  A    between atoms: _409  and  _410
REMARK  167  A    between atoms: _413  and  _415
REMARK  168  A    between atoms: _415  and  _416
REMARK  169  A    between atoms: _415  and  _418
REMARK  170  A    between atoms: _418  and  _419
REMARK  171  A    between atoms: _421  and  _423
REMARK  172  A    between atoms: _423  and  _424
REMARK  173  A    between atoms: _423  and  _426
REMARK  174  A    between atoms: _429  and  _431
REMARK  175  A    between atoms: _431  and  _432
REMARK  176  A    between atoms: _431  and  _434
REMARK  177  A    between atoms: _434  and  _435
REMARK  178  A    between atoms: _437  and  _439
REMARK  179  A    between atoms: _439  and  _440
REMARK  180  A    between atoms: _439  and  _442
REMARK  181  A    between atoms: _442  and  _443
REMARK  182  A    between atoms: _449  and  _451
REMARK  183  A    between atoms: _451  and  _452
REMARK  184  A    between atoms: _451  and  _454
REMARK  185  A    between atoms: _454  and  _455
REMARK  186  A    between atoms: _458  and  _460
REMARK  187  A    between atoms: _460  and  _461
REMARK  188  A    between atoms: _460  and  _463
REMARK  189  A    between atoms: _463  and  _464
REMARK  190  A    between atoms: _467  and  _469
REMARK  191  A    between atoms: _469  and  _470
REMARK  192  A    between atoms: _469  and  _472
REMARK  193  A    between atoms: _472  and  _473
REMARK  194  A    between atoms: _479  and  _481
REMARK  195  A    between atoms: _481  and  _482
REMARK  196  A    between atoms: _484  and  _486
REMARK  197  A    between atoms: _486  and  _487
REMARK  198  A    between atoms: _486  and  _489
REMARK  199  A    between atoms: _489  and  _490
REMARK  200  A    between atoms: _490  and  _491
REMARK  201  A    between atoms: _491  and  _492
REMARK  202  A    between atoms: _492  and  _493
REMARK  203  A    between atoms: _497  and  _499
REMARK  204  A    between atoms: _499  and  _500
REMARK  205  A    between atoms: _502  and  _504
REMARK  206  A    between atoms: _504  and  _505
REMARK  207  A    between atoms: _504  and  _507
REMARK  208  A    between atoms: _510  and  _512
REMARK  209  A    between atoms: _512  and  _513
REMARK  210  A    between atoms: _515  and  _517
REMARK  211  A    between atoms: _517  and  _518
REMARK  212  A    between atoms: _517  and  _520
REMARK  213  A    between atoms: _520  and  _521
REMARK                            x       y       z     vdW  Elec       q    Type
REMARK                         _______ _______ _______ _____ _____    ______ ____
ROOT
ATOM      1  C   THR A   3       5.015  20.946  -6.250  0.00  0.00    +0.246 C 
ATOM      2  O   THR A   3       4.289  20.098  -5.719  0.00  0.00    -0.273 OA
ATOM      3  N   PRO A   4       6.143  20.640  -6.910  0.00  0.00    -0.272 N 
ATOM      4  CA  PRO A   4       6.617  19.264  -6.894  0.00  0.00    +0.152 C 
ATOM      5  CB  PRO A   4       7.562  19.193  -8.085  0.00  0.00    +0.031 C 
ATOM      6  CG  PRO A   4       7.965  20.602  -8.378  0.00  0.00    +0.024 C 
ATOM      7  CD  PRO A   4       7.052  21.533  -7.665  0.00  0.00    +0.094 C 
ENDROOT
BRANCH   4   8
ATOM      8  C   PRO A   4       7.396  19.002  -5.597  0.00  0.00    +0.241 C 
ATOM      9  O   PRO A   4       7.703  19.928  -4.803  0.00  0.00    -0.273 OA
ATOM     10  N   MET A   5       7.790  17.750  -5.426  0.00  0.00    -0.297 N 
ATOM     11  H   MET A   5       7.565  17.061  -6.171  0.00  0.00    +0.150 HD
BRANCH  10  12
ATOM     12  CA  MET A   5       8.521  17.279  -4.255  0.00  0.00    +0.149 C 
BRANCH  12  13
ATOM     13  C   MET A   5       9.891  16.835  -4.685  0.00  0.00    +0.241 C 
ATOM     14  N   THR A   6      10.906  17.096  -3.861  0.00  0.00    -0.296 N 
ATOM     15  H   THR A   6      10.744  17.590  -2.961  0.00  0.00    +0.150 HD
ATOM     16  O   MET A   5      10.041  16.260  -5.766  0.00  0.00    -0.273 OA
BRANCH  14  17
ATOM     17  CA  THR A   6      12.249  16.675  -4.246  0.00  0.00    +0.164 C 
BRANCH  17  18
ATOM     18  CB  THR A   6      12.890  17.655  -5.241  0.00  0.00    +0.136 C 
ATOM     19  CG2 THR A   6      13.434  18.907  -4.569  0.00  0.00    +0.034 C 
BRANCH  18  20
ATOM     20  OG1 THR A   6      13.955  16.982  -5.946  0.00  0.00    -0.382 OA
ATOM     21  HG1 THR A   6      14.372  17.609  -6.589  0.00  0.00    +0.210 HD
ENDBRANCH  18  20
ENDBRANCH  17  18
BRANCH  17  22
ATOM     22  C   THR A   6      13.088  16.394  -2.996  0.00  0.00    +0.229 C 
ATOM     23  O   THR A   6      12.614  16.577  -1.872  0.00  0.00    -0.286 OA
ENDBRANCH  17  22
ENDBRANCH  14  17
ENDBRANCH  12  13
BRANCH  12  24
ATOM     24  CB  MET A   5       7.774  16.072  -3.634  0.00  0.00    +0.041 C 
BRANCH  24  25
ATOM     25  CG  MET A   5       6.263  16.315  -3.476  0.00  0.00    +0.060 C 
BRANCH  25  26
ATOM     26  SD  MET A   5       5.904  17.702  -2.357  0.00  0.00    -0.139 S 
ATOM     27  CE  MET A   5       6.348  17.032  -0.961  0.00  0.00    +0.069 C 
ENDBRANCH  25  26
ENDBRANCH  24  25
ENDBRANCH  12  24
ENDBRANCH  10  12
ENDBRANCH   4   8
BRANCH   1  28
ATOM     28  CA  THR A   3       4.702  22.422  -6.077  0.00  0.00    +0.176 C 
BRANCH  28  30
ATOM     29  C   LEU A   2       2.871  23.899  -6.592  0.00  0.00    +0.241 C 
ATOM     30  N   THR A   3       3.274  22.672  -6.240  0.00  0.00    -0.295 N 
ATOM     31  H   THR A   3       2.582  21.911  -6.086  0.00  0.00    +0.150 HD
ATOM     32  O   LEU A   2       3.649  24.850  -6.758  0.00  0.00    -0.273 OA
BRANCH  29  33
ATOM     33  CA  LEU A   2       1.380  24.090  -6.793  0.00  0.00    +0.149 C 
BRANCH  33  36
ATOM     34  C   LEU A   1       0.077  25.496  -5.261  0.00  0.00    +0.238 C 
ATOM     35  O   LEU A   1      -0.648  24.556  -4.913  0.00  0.00    -0.274 OA
ATOM     36  N   LEU A   2       1.037  25.390  -6.195  0.00  0.00    -0.297 N 
ATOM     37  H   LEU A   2       1.547  26.243  -6.501  0.00  0.00    +0.150 HD
BRANCH  34  38
ATOM     38  CA  LEU A   1      -0.145  26.872  -4.661  0.00  0.00    +0.145 C 
BRANCH  38  39
ATOM     39  N   LEU A   1      -1.550  26.946  -4.264  0.00  0.00    -0.238 NA
ATOM     40  H   LEU A   1      -2.053  26.067  -4.030  0.00  0.00    +0.142 HD
ENDBRANCH  38  39
BRANCH  38  41
ATOM     41  CB  LEU A   1       0.773  27.098  -3.452  0.00  0.00    +0.026 C 
BRANCH  41  42
ATOM     42  CG  LEU A   1       2.078  27.819  -3.778  0.00  0.00    +0.002 C 
ATOM     43  CD2 LEU A   1       3.057  27.736  -2.611  0.00  0.00    +0.000 C 
ATOM     44  CD1 LEU A   1       1.814  29.315  -4.109  0.00  0.00    +0.000 C 
ENDBRANCH  41  42
ENDBRANCH  38  41
ENDBRANCH  34  38
ENDBRANCH  33  36
BRANCH  33  45
ATOM     45  CB  LEU A   2       1.071  24.072  -8.297  0.00  0.00    +0.029 C 
BRANCH  45  46
ATOM     46  CG  LEU A   2      -0.387  24.142  -8.708  0.00  0.00    +0.002 C 
ATOM     47  CD2 LEU A   2      -1.179  22.922  -8.200  0.00  0.00    +0.000 C 
ATOM     48  CD1 LEU A   2      -0.484  24.212 -10.238  0.00  0.00    +0.000 C 
ENDBRANCH  45  46
ENDBRANCH  33  45
ENDBRANCH  29  33
ENDBRANCH  28  30
BRANCH  28  49
ATOM     49  CB  THR A   3       5.202  22.886  -4.658  0.00  0.00    +0.137 C 
ATOM     50  CG2 THR A   3       4.415  22.227  -3.499  0.00  0.00    +0.034 C 
BRANCH  49  51
ATOM     51  OG1 THR A   3       6.626  22.608  -4.558  0.00  0.00    -0.382 OA
ATOM     52  HG1 THR A   3       6.780  21.637  -4.671  0.00  0.00    +0.210 HD
ENDBRANCH  49  51
ENDBRANCH  28  49
ENDBRANCH   1  28
TORSDOF 22
REMARK  Name = ../refined-set-2016/4pow/4pow_pocket.pdb
REMARK  213 active torsions:
REMARK  status: ('A' for Active; 'I' for Inactive)
REMARK    1  A    between atoms: _1  and  _3
REMARK    2  A    between atoms: _3  and  _4
REMARK    3  A    between atoms: _3  and  _6
REMARK    4  A    between atoms: _6  and  _7
REMARK    5  A    between atoms: _10  and  _12
REMARK    6  A    between atoms: _12  and  _13
REMARK    7  A    between atoms: _12  and  _15
REMARK    8  A    between atoms: _15  and  _16
REMARK    9  A    between atoms: _16  and  _17
REMARK   10  A    between atoms: _20  and  _22
REMARK   11  A    between atoms: _22  and  _23
REMARK   12  A    between atoms: _25  and  _27
REMARK   13  A    between atoms: _27  and  _28
REMARK   14  A    between atoms: _27  and  _30
REMARK   15  A    between atoms: _30  and  _31
REMARK   16  A    between atoms: _33  and  _35
REMARK   17  A    between atoms: _35  and  _36
REMARK   18  A    between atoms: _35  and  _38
REMARK   19  A    between atoms: _38  and  _39
REMARK   20  A    between atoms: _44  and  _45
REMARK   21  A    between atoms: _47  and  _49
REMARK   22  A    between atoms: _49  and  _50
REMARK   23  A    between atoms: _54  and  _55
REMARK   24  A    between atoms: _60  and  _62
REMARK   25  A    between atoms: _62  and  _63
REMARK   26  A    between atoms: _62  and  _65
REMARK   27  A    between atoms: _65  and  _66
REMARK   28  A    between atoms: _71  and  _72
REMARK   29  A    between atoms: _74  and  _76
REMARK   30  A    between atoms: _76  and  _77
REMARK   31  A    between atoms: _76  and  _79
REMARK   32  A    between atoms: _79  and  _80
REMARK   33  A    between atoms: _85  and  _87
REMARK   34  A    between atoms: _87  and  _88
REMARK   35  A    between atoms: _87  and  _90
REMARK   36  A    between atoms: _90  and  _91
REMARK   37  A    between atoms: _94  and  _96
REMARK   38  A    between atoms: _96  and  _97
REMARK   39  A    between atoms: _96  and  _99
REMARK   40  A    between atoms: _99  and  _100
REMARK   41  A    between atoms: _100  and  _101
REMARK   42  A    between atoms: _106  and  _108
REMARK   43  A    between atoms: _108  and  _109
REMARK   44  A    between atoms: _112  and  _114
REMARK   45  A    between atoms: _114  and  _115
REMARK   46  A    between atoms: _114  and  _117
REMARK   47  A    between atoms: _117  and  _118
REMARK   48  A    between atoms: _128  and  _130
REMARK   49  A    between atoms: _130  and  _131
REMARK   50  A    between atoms: _130  and  _133
REMARK   51  A    between atoms: _133  and  _134
REMARK   52  A    between atoms: _137  and  _139
REMARK   53  A    between atoms: _139  and  _140
REMARK   54  A    between atoms: _139  and  _142
REMARK   55  A    between atoms: _142  and  _143
REMARK   56  A    between atoms: _146  and  _148
REMARK   57  A    between atoms: _148  and  _149
REMARK   58  A    between atoms: _148  and  _151
REMARK   59  A    between atoms: _151  and  _152
REMARK   60  A    between atoms: _152  and  _153
REMARK   61  A    between atoms: _155  and  _157
REMARK   62  A    between atoms: _157  and  _158
REMARK   63  A    between atoms: _161  and  _163
REMARK   64  A    between atoms: _163  and  _164
REMARK   65  A    between atoms: _167  and  _169
REMARK   66  A    between atoms: _169  and  _170
REMARK   67  A    between atoms: _169  and  _172
REMARK   68  A    between atoms: _172  and  _173
REMARK   69  A    between atoms: _173  and  _174
REMARK   70  A    between atoms: _176  and  _178
REMARK   71  A    between atoms: _178  and  _179
REMARK   72  A    between atoms: _181  and  _183
REMARK   73  A    between atoms: _183  and  _184
REMARK   74  A    between atoms: _183  and  _186
REMARK   75  A    between atoms: _186  and  _187
REMARK   76  A    between atoms: _190  and  _192
REMARK   77  A    between atoms: _192  and  _193
REMARK   78  A    between atoms: _192  and  _195
REMARK   79  A    between atoms: _195  and  _196
REMARK   80  A    between atoms: _196  and  _197
REMARK   81  A    between atoms: _202  and  _204
REMARK   82  A    between atoms: _204  and  _205
REMARK   83  A    between atoms: _204  and  _207
REMARK   84  A    between atoms: _207  and  _208
REMARK   85  A    between atoms: _208  and  _209
REMARK   86  A    between atoms: _209  and  _210
REMARK   87  A    between atoms: _219  and  _221
REMARK   88  A    between atoms: _221  and  _222
REMARK   89  A    between atoms: _221  and  _224
REMARK   90  A    between atoms: _224  and  _225
REMARK   91  A    between atoms: _231  and  _233
REMARK   92  A    between atoms: _233  and  _234
REMARK   93  A    between atoms: _233  and  _236
REMARK   94  A    between atoms: _236  and  _237
REMARK   95  A    between atoms: _240  and  _242
REMARK   96  A    between atoms: _242  and  _243
REMARK   97  A    between atoms: _242  and  _245
REMARK   98  A    between atoms: _245  and  _246
REMARK   99  A    between atoms: _249  and  _251
REMARK  100  A    between atoms: _251  and  _252
REMARK  101  A    between atoms: _251  and  _254
REMARK  102  A    between atoms: _254  and  _255
REMARK  103  A    between atoms: _259  and  _260
REMARK  104  A    between atoms: _265  and  _267
REMARK  105  A    between atoms: _267  and  _268
REMARK  106  A    between atoms: _267  and  _270
REMARK  107  A    between atoms: _270  and  _271
REMARK  108  A    between atoms: _271  and  _272
REMARK  109  A    between atoms: _274  and  _276
REMARK  110  A    between atoms: _276  and  _277
REMARK  111  A    between atoms: _276  and  _279
REMARK  112  A    between atoms: _279  and  _280
REMARK  113  A    between atoms: _283  and  _285
REMARK  114  A    between atoms: _285  and  _286
REMARK  115  A    between atoms: _285  and  _288
REMARK  116  A    between atoms: _288  and  _289
REMARK  117  A    between atoms: _289  and  _290
REMARK  118  A    between atoms: _295  and  _297
REMARK  119  A    between atoms: _297  and  _298
REMARK  120  A    between atoms: _301  and  _303
REMARK  121  A    between atoms: _303  and  _304
REMARK  122  A    between atoms: _306  and  _308
REMARK  123  A    between atoms: _308  and  _309
REMARK  124  A    between atoms: _308  and  _311
REMARK  125  A    between atoms: _311  and  _312
REMARK  126  A    between atoms: _315  and  _317
REMARK  127  A    between atoms: _317  and  _318
REMARK  128  A    between atoms: _317  and  _320
REMARK  129  A    between atoms: _320  and  _321
REMARK  130  A    between atoms: _323  and  _325
REMARK  131  A    between atoms: _325  and  _326
REMARK  132  A    between atoms: _325  and  _328
REMARK  133  A    between atoms: _328  and  _329
REMARK  134  A    between atoms: _334  and  _336
REMARK  135  A    between atoms: _336  and  _337
REMARK  136  A    between atoms: _336  and  _339
REMARK  137  A    between atoms: _339  and  _340
REMARK  138  A    between atoms: _340  and  _341
REMARK  139  A    between atoms: _344  and  _346
REMARK  140  A    between atoms: _346  and  _347
REMARK  141  A    between atoms: _350  and  _352
REMARK  142  A    between atoms: _352  and  _353
REMARK  143  A    between atoms: _352  and  _355
REMARK  144  A    between atoms: _355  and  _356
REMARK  145  A    between atoms: _362  and  _364
REMARK  146  A    between atoms: _364  and  _365
REMARK  147  A    between atoms: _364  and  _367
REMARK  148  A    between atoms: _367  and  _368
REMARK  149  A    between atoms: _371  and  _373
REMARK  150  A    between atoms: _373  and  _374
REMARK  151  A    between atoms: _373  and  _376
REMARK  152  A    between atoms: _376  and  _377
REMARK  153  A    between atoms: _380  and  _382
REMARK  154  A    between atoms: _382  and  _383
REMARK  155  A    between atoms: _382  and  _385
REMARK  156  A    between atoms: _385  and  _386
REMARK  157  A    between atoms: _389  and  _391
REMARK  158  A    between atoms: _391  and  _392
REMARK  159  A    between atoms: _391  and  _394
REMARK  160  A    between atoms: _394  and  _395
REMARK  161  A    between atoms: _398  and  _400
REMARK  162  A    between atoms: _400  and  _401
REMARK  163  A    between atoms: _400  and  _403
REMARK  164  A    between atoms: _403  and  _404
REMARK  165  A    between atoms: _407  and  _409
REMARK  166  A    between atoms: _409  and  _410
REMARK  167  A    between atoms: _413  and  _415
REMARK  168  A    between atoms: _415  and  _416
REMARK  169  A    between atoms: _415  and  _418
REMARK  170  A    between atoms: _418  and  _419
REMARK  171  A    between atoms: _421  and  _423
REMARK  172  A    between atoms: _423  and  _424
REMARK  173  A    between atoms: _423  and  _426
REMARK  174  A    between atoms: _429  and  _431
REMARK  175  A    between atoms: _431  and  _432
REMARK  176  A    between atoms: _431  and  _434
REMARK  177  A    between atoms: _434  and  _435
REMARK  178  A    between atoms: _437  and  _439
REMARK  179  A    between atoms: _439  and  _440
REMARK  180  A    between atoms: _439  and  _442
REMARK  181  A    between atoms: _442  and  _443
REMARK  182  A    between atoms: _449  and  _451
REMARK  183  A    between atoms: _451  and  _452
REMARK  184  A    between atoms: _451  and  _454
REMARK  185  A    between atoms: _454  and  _455
REMARK  186  A    between atoms: _458  and  _460
REMARK  187  A    between atoms: _460  and  _461
REMARK  188  A    between atoms: _460  and  _463
REMARK  189  A    between atoms: _463  and  _464
REMARK  190  A    between atoms: _467  and  _469
REMARK  191  A    between atoms: _469  and  _470
REMARK  192  A    between atoms: _469  and  _472
REMARK  193  A    between atoms: _472  and  _473
REMARK  194  A    between atoms: _479  and  _481
REMARK  195  A    between atoms: _481  and  _482
REMARK  196  A    between atoms: _484  and  _486
REMARK  197  A    between atoms: _486  and  _487
REMARK  198  A    between atoms: _486  and  _489
REMARK  199  A    between atoms: _489  and  _490
REMARK  200  A    between atoms: _490  and  _491
REMARK  201  A    between atoms: _491  and  _492
REMARK  202  A    between atoms: _492  and  _493
REMARK  203  A    between atoms: _497  and  _499
REMARK  204  A    between atoms: _499  and  _500
REMARK  205  A    between atoms: _502  and  _504
REMARK  206  A    between atoms: _504  and  _505
REMARK  207  A    between atoms: _504  and  _507
REMARK  208  A    between atoms: _510  and  _512
REMARK  209  A    between atoms: _512  and  _513
REMARK  210  A    between atoms: _515  and  _517
REMARK  211  A    between atoms: _517  and  _518
REMARK  212  A    between atoms: _517  and  _520
REMARK  213  A    between atoms: _520  and  _521
REMARK                            x       y       z     vdW  Elec       q    Type
REMARK                         _______ _______ _______ _____ _____    ______ ____
ROOT
ATOM      1  C   SER A   5       4.848  12.701   2.357  0.00  0.00    +0.243 C 
ATOM      2  N   HIS A   6       5.795  13.425   2.983  0.00  0.00    -0.297 N 
ATOM      3  H   HIS A   6       5.507  14.257   3.537  0.00  0.00    +0.150 HD
ATOM      4  O   SER A   5       5.102  11.707   1.671  0.00  0.00    -0.273 OA
ENDROOT
BRANCH   2   5
ATOM      5  CA  HIS A   6       7.223  13.079   2.910  0.00  0.00    +0.155 C 
BRANCH   5   6
ATOM      6  C   HIS A   6       7.400  11.715   3.571  0.00  0.00    +0.241 C 
ATOM      7  N   GLU A   7       6.823  11.556   4.789  0.00  0.00    -0.297 N 
ATOM      8  H   GLU A   7       6.324  12.356   5.229  0.00  0.00    +0.150 HD
ATOM      9  O   HIS A   6       8.023  10.808   2.984  0.00  0.00    -0.273 OA
BRANCH   7  10
ATOM     10  CA  GLU A   7       6.894  10.265   5.497  0.00  0.00    +0.149 C 
BRANCH  10  11
ATOM     11  C   GLU A   7       6.157   9.182   4.693  0.00  0.00    +0.241 C 
ATOM     12  O   GLU A   7       6.664   8.055   4.554  0.00  0.00    -0.273 OA
ATOM     13  N   ALA A   8       4.948   9.512   4.184  0.00  0.00    -0.297 N 
ATOM     14  H   ALA A   8       4.589  10.479   4.314  0.00  0.00    +0.150 HD
BRANCH  13  15
ATOM     15  CA  ALA A   8       4.136   8.543   3.457  0.00  0.00    +0.149 C 
ATOM     16  CB  ALA A   8       2.810   9.183   3.060  0.00  0.00    +0.031 C 
BRANCH  15  17
ATOM     17  C   ALA A   8       4.868   8.039   2.222  0.00  0.00    +0.241 C 
ATOM     18  O   ALA A   8       4.887   6.838   1.972  0.00  0.00    -0.273 OA
ATOM     19  N   PHE A   9       5.525   8.953   1.481  0.00  0.00    -0.298 N 
ATOM     20  H   PHE A   9       5.505   9.954   1.763  0.00  0.00    +0.150 HD
BRANCH  19  21
ATOM     21  CA  PHE A   9       6.259   8.558   0.295  0.00  0.00    +0.141 C 
BRANCH  21  22
ATOM     22  C   PHE A   9       7.385   7.587   0.670  0.00  0.00    +0.227 C 
ATOM     23  O   PHE A   9       7.548   6.559   0.020  0.00  0.00    -0.286 OA
ENDBRANCH  21  22
BRANCH  21  24
ATOM     24  CB  PHE A   9       6.858   9.810  -0.391  0.00  0.00    +0.054 C 
BRANCH  24  25
ATOM     25  CG  PHE A   9       7.743   9.418  -1.558  0.00  0.00    -0.020 A 
ATOM     26  CD2 PHE A   9       9.108   9.181  -1.372  0.00  0.00    -0.004 A 
ATOM     27  CE2 PHE A   9       9.916   8.773  -2.443  0.00  0.00    -0.000 A 
ATOM     28  CZ  PHE A   9       9.360   8.639  -3.711  0.00  0.00    -0.000 A 
ATOM     29  CE1 PHE A   9       8.012   8.876  -3.909  0.00  0.00    -0.000 A 
ATOM     30  CD1 PHE A   9       7.202   9.258  -2.835  0.00  0.00    -0.004 A 
ENDBRANCH  24  25
ENDBRANCH  21  24
ENDBRANCH  19  21
ENDBRANCH  15  17
ENDBRANCH  13  15
ENDBRANCH  10  11
BRANCH  10  31
ATOM     31  CB  GLU A   7       6.241  10.415   6.888  0.00  0.00    +0.041 C 
BRANCH  31  32
ATOM     32  CG  GLU A   7       6.287   9.106   7.681  0.00  0.00    +0.116 C 
BRANCH  32  33
ATOM     33  CD  GLU A   7       5.545   9.123   9.006  0.00  0.00    +0.365 C 
ATOM     34  OE2 GLU A   7       5.800   8.207   9.820  0.00  0.00    -0.246 OA
ATOM     35  OE1 GLU A   7       4.613   9.941   9.170  0.00  0.00    -0.246 OA
ENDBRANCH  32  33
ENDBRANCH  31  32
ENDBRANCH  10  31
ENDBRANCH   7  10
ENDBRANCH   5   6
BRANCH   5  36
ATOM     36  CB  HIS A   6       8.096  14.119   3.639  0.00  0.00    +0.076 C 
BRANCH  36  37
ATOM     37  CG  HIS A   6       7.714  15.557   3.395  0.00  0.00    +0.082 A 
ATOM     38  ND1 HIS A   6       8.117  16.564   4.265  0.00  0.00    -0.227 NA
ATOM     39  CE1 HIS A   6       7.651  17.693   3.743  0.00  0.00    +0.199 A 
ATOM     40  NE2 HIS A   6       6.984  17.472   2.610  0.00  0.00    -0.221 NA
ATOM     41  CD2 HIS A   6       7.026  16.106   2.369  0.00  0.00    +0.115 A 
ENDBRANCH  36  37
ENDBRANCH   5  36
ENDBRANCH   2   5
BRANCH   1  42
ATOM     42  CA  SER A   5       3.390  13.151   2.552  0.00  0.00    +0.178 C 
BRANCH  42  45
ATOM     43  C   THR A   4       3.452  13.346   4.987  0.00  0.00    +0.243 C 
ATOM     44  O   THR A   4       3.745  12.138   5.135  0.00  0.00    -0.273 OA
ATOM     45  N   SER A   5       3.262  13.923   3.785  0.00  0.00    -0.295 N 
ATOM     46  H   SER A   5       3.021  14.933   3.734  0.00  0.00    +0.150 HD
BRANCH  43  47
ATOM     47  CA  THR A   4       3.434  14.301   6.175  0.00  0.00    +0.176 C 
BRANCH  47  50
ATOM     48  C   GLY A   3       2.418  13.622   8.291  0.00  0.00    +0.243 C 
ATOM     49  O   GLY A   3       1.384  14.246   8.038  0.00  0.00    -0.273 OA
ATOM     50  N   THR A   4       3.451  13.567   7.442  0.00  0.00    -0.295 N 
ATOM     51  H   THR A   4       4.282  12.992   7.687  0.00  0.00    +0.150 HD
BRANCH  48  52
ATOM     52  CA  GLY A   3       2.564  12.848   9.580  0.00  0.00    +0.176 C 
BRANCH  52  55
ATOM     53  C   ALA A   2       4.755  13.405  10.473  0.00  0.00    +0.241 C 
ATOM     54  O   ALA A   2       4.467  14.603  10.552  0.00  0.00    -0.273 OA
ATOM     55  N   GLY A   3       3.923  12.490   9.970  0.00  0.00    -0.295 N 
ATOM     56  H   GLY A   3       4.248  11.509   9.855  0.00  0.00    +0.150 HD
BRANCH  53  57
ATOM     57  CA  ALA A   2       6.115  12.898  10.947  0.00  0.00    +0.149 C 
ATOM     58  CB  ALA A   2       6.037  12.593  12.442  0.00  0.00    +0.031 C 
BRANCH  57  60
ATOM     59  C   GLN A   1       7.515  14.289   9.482  0.00  0.00    +0.238 C 
ATOM     60  N   ALA A   2       7.184  13.886  10.710  0.00  0.00    -0.297 N 
ATOM     61  H   ALA A   2       7.695  14.281  11.525  0.00  0.00    +0.150 HD
ATOM     62  O   GLN A   1       6.969  13.838   8.466  0.00  0.00    -0.274 OA
BRANCH  59  63
ATOM     63  CA  GLN A   1       8.610  15.357   9.389  0.00  0.00    +0.145 C 
BRANCH  63  64
ATOM     64  N   GLN A   1       9.576  14.923   8.398  0.00  0.00    -0.238 NA
ATOM     65  H   GLN A   1       9.615  15.389   7.469  0.00  0.00    +0.142 HD
ENDBRANCH  63  64
BRANCH  63  66
ATOM     66  CB  GLN A   1       7.988  16.700   8.990  0.00  0.00    +0.036 C 
BRANCH  66  67
ATOM     67  CG  GLN A   1       6.904  17.130  10.025  0.00  0.00    +0.087 C 
BRANCH  67  68
ATOM     68  CD  GLN A   1       6.211  18.422   9.733  0.00  0.00    +0.219 C 
ATOM     69  NE2 GLN A   1       5.517  18.934  10.760  0.00  0.00    -0.329 N 
ATOM     70 HE21 GLN A   1       5.464  18.417  11.661  0.00  0.00    +0.145 HD
ATOM     71 HE22 GLN A   1       5.032  19.848  10.656  0.00  0.00    +0.145 HD
ATOM     72  OE1 GLN A   1       6.316  18.977   8.643  0.00  0.00    -0.275 OA
ENDBRANCH  67  68
ENDBRANCH  66  67
ENDBRANCH  63  66
ENDBRANCH  59  63
ENDBRANCH  57  60
ENDBRANCH  53  57
ENDBRANCH  52  55
ENDBRANCH  48  52
ENDBRANCH  47  50
BRANCH  47  73
ATOM     73  CB  THR A   4       4.683  15.199   6.077  0.00  0.00    +0.137 C 
ATOM     74  CG2 THR A   4       4.732  16.291   7.152  0.00  0.00    +0.034 C 
BRANCH  73  75
ATOM     75  OG1 THR A   4       5.849  14.355   6.089  0.00  0.00    -0.382 OA
ATOM     76  HG1 THR A   4       5.870  13.835   6.931  0.00  0.00    +0.210 HD
ENDBRANCH  73  75
ENDBRANCH  47  73
ENDBRANCH  43  47
ENDBRANCH  42  45
BRANCH  42  77
ATOM     77  CB  SER A   5       2.960  14.016   1.373  0.00  0.00    +0.166 C 
BRANCH  77  78
ATOM     78  OG  SER A   5       3.863  15.099   1.237  0.00  0.00    -0.380 OA
ATOM     79  H   SER A   5       3.587  15.663   0.472  0.00  0.00    +0.211 HD
ENDBRANCH  77  78
ENDBRANCH  42  77
ENDBRANCH   1  42
TORSDOF 32
REMARK  Name = ../refined-set-2016/4pow/4pow_pocket.pdb
REMARK  213 active torsions:
REMARK  status: ('A' for Active; 'I' for Inactive)
REMARK    1  A    between atoms: _1  and  _3
REMARK    2  A    between atoms: _3  and  _4
REMARK    3  A    between atoms: _3  and  _6
REMARK    4  A    between atoms: _6  and  _7
REMARK    5  A    between atoms: _10  and  _12
REMARK    6  A    between atoms: _12  and  _13
REMARK    7  A    between atoms: _12  and  _15
REMARK    8  A    between atoms: _15  and  _16
REMARK    9  A    between atoms: _16  and  _17
REMARK   10  A    between atoms: _20  and  _22
REMARK   11  A    between atoms: _22  and  _23
REMARK   12  A    between atoms: _25  and  _27
REMARK   13  A    between atoms: _27  and  _28
REMARK   14  A    between atoms: _27  and  _30
REMARK   15  A    between atoms: _30  and  _31
REMARK   16  A    between atoms: _33  and  _35
REMARK   17  A    between atoms: _35  and  _36
REMARK   18  A    between atoms: _35  and  _38
REMARK   19  A    between atoms: _38  and  _39
REMARK   20  A    between atoms: _44  and  _45
REMARK   21  A    between atoms: _47  and  _49
REMARK   22  A    between atoms: _49  and  _50
REMARK   23  A    between atoms: _54  and  _55
REMARK   24  A    between atoms: _60  and  _62
REMARK   25  A    between atoms: _62  and  _63
REMARK   26  A    between atoms: _62  and  _65
REMARK   27  A    between atoms: _65  and  _66
REMARK   28  A    between atoms: _71  and  _72
REMARK   29  A    between atoms: _74  and  _76
REMARK   30  A    between atoms: _76  and  _77
REMARK   31  A    between atoms: _76  and  _79
REMARK   32  A    between atoms: _79  and  _80
REMARK   33  A    between atoms: _85  and  _87
REMARK   34  A    between atoms: _87  and  _88
REMARK   35  A    between atoms: _87  and  _90
REMARK   36  A    between atoms: _90  and  _91
REMARK   37  A    between atoms: _94  and  _96
REMARK   38  A    between atoms: _96  and  _97
REMARK   39  A    between atoms: _96  and  _99
REMARK   40  A    between atoms: _99  and  _100
REMARK   41  A    between atoms: _100  and  _101
REMARK   42  A    between atoms: _106  and  _108
REMARK   43  A    between atoms: _108  and  _109
REMARK   44  A    between atoms: _112  and  _114
REMARK   45  A    between atoms: _114  and  _115
REMARK   46  A    between atoms: _114  and  _117
REMARK   47  A    between atoms: _117  and  _118
REMARK   48  A    between atoms: _128  and  _130
REMARK   49  A    between atoms: _130  and  _131
REMARK   50  A    between atoms: _130  and  _133
REMARK   51  A    between atoms: _133  and  _134
REMARK   52  A    between atoms: _137  and  _139
REMARK   53  A    between atoms: _139  and  _140
REMARK   54  A    between atoms: _139  and  _142
REMARK   55  A    between atoms: _142  and  _143
REMARK   56  A    between atoms: _146  and  _148
REMARK   57  A    between atoms: _148  and  _149
REMARK   58  A    between atoms: _148  and  _151
REMARK   59  A    between atoms: _151  and  _152
REMARK   60  A    between atoms: _152  and  _153
REMARK   61  A    between atoms: _155  and  _157
REMARK   62  A    between atoms: _157  and  _158
REMARK   63  A    between atoms: _161  and  _163
REMARK   64  A    between atoms: _163  and  _164
REMARK   65  A    between atoms: _167  and  _169
REMARK   66  A    between atoms: _169  and  _170
REMARK   67  A    between atoms: _169  and  _172
REMARK   68  A    between atoms: _172  and  _173
REMARK   69  A    between atoms: _173  and  _174
REMARK   70  A    between atoms: _176  and  _178
REMARK   71  A    between atoms: _178  and  _179
REMARK   72  A    between atoms: _181  and  _183
REMARK   73  A    between atoms: _183  and  _184
REMARK   74  A    between atoms: _183  and  _186
REMARK   75  A    between atoms: _186  and  _187
REMARK   76  A    between atoms: _190  and  _192
REMARK   77  A    between atoms: _192  and  _193
REMARK   78  A    between atoms: _192  and  _195
REMARK   79  A    between atoms: _195  and  _196
REMARK   80  A    between atoms: _196  and  _197
REMARK   81  A    between atoms: _202  and  _204
REMARK   82  A    between atoms: _204  and  _205
REMARK   83  A    between atoms: _204  and  _207
REMARK   84  A    between atoms: _207  and  _208
REMARK   85  A    between atoms: _208  and  _209
REMARK   86  A    between atoms: _209  and  _210
REMARK   87  A    between atoms: _219  and  _221
REMARK   88  A    between atoms: _221  and  _222
REMARK   89  A    between atoms: _221  and  _224
REMARK   90  A    between atoms: _224  and  _225
REMARK   91  A    between atoms: _231  and  _233
REMARK   92  A    between atoms: _233  and  _234
REMARK   93  A    between atoms: _233  and  _236
REMARK   94  A    between atoms: _236  and  _237
REMARK   95  A    between atoms: _240  and  _242
REMARK   96  A    between atoms: _242  and  _243
REMARK   97  A    between atoms: _242  and  _245
REMARK   98  A    between atoms: _245  and  _246
REMARK   99  A    between atoms: _249  and  _251
REMARK  100  A    between atoms: _251  and  _252
REMARK  101  A    between atoms: _251  and  _254
REMARK  102  A    between atoms: _254  and  _255
REMARK  103  A    between atoms: _259  and  _260
REMARK  104  A    between atoms: _265  and  _267
REMARK  105  A    between atoms: _267  and  _268
REMARK  106  A    between atoms: _267  and  _270
REMARK  107  A    between atoms: _270  and  _271
REMARK  108  A    between atoms: _271  and  _272
REMARK  109  A    between atoms: _274  and  _276
REMARK  110  A    between atoms: _276  and  _277
REMARK  111  A    between atoms: _276  and  _279
REMARK  112  A    between atoms: _279  and  _280
REMARK  113  A    between atoms: _283  and  _285
REMARK  114  A    between atoms: _285  and  _286
REMARK  115  A    between atoms: _285  and  _288
REMARK  116  A    between atoms: _288  and  _289
REMARK  117  A    between atoms: _289  and  _290
REMARK  118  A    between atoms: _295  and  _297
REMARK  119  A    between atoms: _297  and  _298
REMARK  120  A    between atoms: _301  and  _303
REMARK  121  A    between atoms: _303  and  _304
REMARK  122  A    between atoms: _306  and  _308
REMARK  123  A    between atoms: _308  and  _309
REMARK  124  A    between atoms: _308  and  _311
REMARK  125  A    between atoms: _311  and  _312
REMARK  126  A    between atoms: _315  and  _317
REMARK  127  A    between atoms: _317  and  _318
REMARK  128  A    between atoms: _317  and  _320
REMARK  129  A    between atoms: _320  and  _321
REMARK  130  A    between atoms: _323  and  _325
REMARK  131  A    between atoms: _325  and  _326
REMARK  132  A    between atoms: _325  and  _328
REMARK  133  A    between atoms: _328  and  _329
REMARK  134  A    between atoms: _334  and  _336
REMARK  135  A    between atoms: _336  and  _337
REMARK  136  A    between atoms: _336  and  _339
REMARK  137  A    between atoms: _339  and  _340
REMARK  138  A    between atoms: _340  and  _341
REMARK  139  A    between atoms: _344  and  _346
REMARK  140  A    between atoms: _346  and  _347
REMARK  141  A    between atoms: _350  and  _352
REMARK  142  A    between atoms: _352  and  _353
REMARK  143  A    between atoms: _352  and  _355
REMARK  144  A    between atoms: _355  and  _356
REMARK  145  A    between atoms: _362  and  _364
REMARK  146  A    between atoms: _364  and  _365
REMARK  147  A    between atoms: _364  and  _367
REMARK  148  A    between atoms: _367  and  _368
REMARK  149  A    between atoms: _371  and  _373
REMARK  150  A    between atoms: _373  and  _374
REMARK  151  A    between atoms: _373  and  _376
REMARK  152  A    between atoms: _376  and  _377
REMARK  153  A    between atoms: _380  and  _382
REMARK  154  A    between atoms: _382  and  _383
REMARK  155  A    between atoms: _382  and  _385
REMARK  156  A    between atoms: _385  and  _386
REMARK  157  A    between atoms: _389  and  _391
REMARK  158  A    between atoms: _391  and  _392
REMARK  159  A    between atoms: _391  and  _394
REMARK  160  A    between atoms: _394  and  _395
REMARK  161  A    between atoms: _398  and  _400
REMARK  162  A    between atoms: _400  and  _401
REMARK  163  A    between atoms: _400  and  _403
REMARK  164  A    between atoms: _403  and  _404
REMARK  165  A    between atoms: _407  and  _409
REMARK  166  A    between atoms: _409  and  _410
REMARK  167  A    between atoms: _413  and  _415
REMARK  168  A    between atoms: _415  and  _416
REMARK  169  A    between atoms: _415  and  _418
REMARK  170  A    between atoms: _418  and  _419
REMARK  171  A    between atoms: _421  and  _423
REMARK  172  A    between atoms: _423  and  _424
REMARK  173  A    between atoms: _423  and  _426
REMARK  174  A    between atoms: _429  and  _431
REMARK  175  A    between atoms: _431  and  _432
REMARK  176  A    between atoms: _431  and  _434
REMARK  177  A    between atoms: _434  and  _435
REMARK  178  A    between atoms: _437  and  _439
REMARK  179  A    between atoms: _439  and  _440
REMARK  180  A    between atoms: _439  and  _442
REMARK  181  A    between atoms: _442  and  _443
REMARK  182  A    between atoms: _449  and  _451
REMARK  183  A    between atoms: _451  and  _452
REMARK  184  A    between atoms: _451  and  _454
REMARK  185  A    between atoms: _454  and  _455
REMARK  186  A    between atoms: _458  and  _460
REMARK  187  A    between atoms: _460  and  _461
REMARK  188  A    between atoms: _460  and  _463
REMARK  189  A    between atoms: _463  and  _464
REMARK  190  A    between atoms: _467  and  _469
REMARK  191  A    between atoms: _469  and  _470
REMARK  192  A    between atoms: _469  and  _472
REMARK  193  A    between atoms: _472  and  _473
REMARK  194  A    between atoms: _479  and  _481
REMARK  195  A    between atoms: _481  and  _482
REMARK  196  A    between atoms: _484  and  _486
REMARK  197  A    between atoms: _486  and  _487
REMARK  198  A    between atoms: _486  and  _489
REMARK  199  A    between atoms: _489  and  _490
REMARK  200  A    between atoms: _490  and  _491
REMARK  201  A    between atoms: _491  and  _492
REMARK  202  A    between atoms: _492  and  _493
REMARK  203  A    between atoms: _497  and  _499
REMARK  204  A    between atoms: _499  and  _500
REMARK  205  A    between atoms: _502  and  _504
REMARK  206  A    between atoms: _504  and  _505
REMARK  207  A    between atoms: _504  and  _507
REMARK  208  A    between atoms: _510  and  _512
REMARK  209  A    between atoms: _512  and  _513
REMARK  210  A    between atoms: _515  and  _517
REMARK  211  A    between atoms: _517  and  _518
REMARK  212  A    between atoms: _517  and  _520
REMARK  213  A    between atoms: _520  and  _521
REMARK                            x       y       z     vdW  Elec       q    Type
REMARK                         _______ _______ _______ _____ _____    ______ ____
ROOT
ATOM      1  C   THR A   2       9.903  19.409  11.802  0.00  0.00    +0.243 C 
ATOM      2  O   THR A   2      10.950  18.787  12.018  0.00  0.00    -0.273 OA
ATOM      3  N   ILE A   3       9.684  20.096  10.683  0.00  0.00    -0.297 N 
ATOM      4  H   ILE A   3       8.787  20.607  10.557  0.00  0.00    +0.150 HD
ENDROOT
BRANCH   3   5
ATOM      5  CA  ILE A   3      10.701  20.135   9.628  0.00  0.00    +0.149 C 
BRANCH   5   6
ATOM      6  C   ILE A   3      11.950  20.884  10.128  0.00  0.00    +0.241 C 
ATOM      7  N   ASP A   4      11.775  21.804  11.093  0.00  0.00    -0.298 N 
ATOM      8  H   ASP A   4      10.820  21.996  11.457  0.00  0.00    +0.150 HD
ATOM      9  O   ILE A   3      13.057  20.624   9.659  0.00  0.00    -0.273 OA
BRANCH   7  10
ATOM     10  CA  ASP A   4      12.918  22.535  11.632  0.00  0.00    +0.148 C 
BRANCH  10  11
ATOM     11  C   ASP A   4      13.893  21.577  12.301  0.00  0.00    +0.227 C 
ATOM     12  O   ASP A   4      15.106  21.713  12.133  0.00  0.00    -0.286 OA
ENDBRANCH  10  11
BRANCH  10  13
ATOM     13  CB  ASP A   4      12.443  23.617  12.611  0.00  0.00    +0.142 C 
BRANCH  13  14
ATOM     14  CG  ASP A   4      11.718  24.753  11.886  0.00  0.00    +0.367 C 
ATOM     15  OD2 ASP A   4      11.017  25.541  12.564  0.00  0.00    -0.246 OA
ATOM     16  OD1 ASP A   4      11.859  24.849  10.643  0.00  0.00    -0.246 OA
ENDBRANCH  13  14
ENDBRANCH  10  13
ENDBRANCH   7  10
ENDBRANCH   5   6
BRANCH   5  17
ATOM     17  CB  ILE A   3      10.143  20.800   8.335  0.00  0.00    +0.027 C 
ATOM     18  CG2 ILE A   3      10.098  22.344   8.468  0.00  0.00    +0.002 C 
BRANCH  17  19
ATOM     19  CG1 ILE A   3      10.991  20.400   7.124  0.00  0.00    +0.002 C 
ATOM     20  CD1 ILE A   3      10.710  19.024   6.637  0.00  0.00    +0.000 C 
ENDBRANCH  17  19
ENDBRANCH   5  17
ENDBRANCH   3   5
BRANCH   1  21
ATOM     21  CA  THR A   2       8.850  19.519  12.881  0.00  0.00    +0.176 C 
BRANCH  21  23
ATOM     22  C   ASP A   1       7.816  17.720  14.177  0.00  0.00    +0.239 C 
ATOM     23  N   THR A   2       8.924  18.390  13.817  0.00  0.00    -0.295 N 
ATOM     24  H   THR A   2       9.845  18.105  14.206  0.00  0.00    +0.150 HD
ATOM     25  O   ASP A   1       6.702  17.966  13.708  0.00  0.00    -0.274 OA
BRANCH  22  26
ATOM     26  CA  ASP A   1       7.989  16.564  15.180  0.00  0.00    +0.156 C 
BRANCH  26  27
ATOM     27  N   ASP A   1       9.173  15.774  14.872  0.00  0.00    -0.238 NA
ATOM     28  H   ASP A   1       9.964  15.737  15.546  0.00  0.00    +0.142 HD
ENDBRANCH  26  27
BRANCH  26  29
ATOM     29  CB  ASP A   1       8.065  17.104  16.608  0.00  0.00    +0.140 C 
BRANCH  29  30
ATOM     30  CG  ASP A   1       7.960  16.057  17.709  0.00  0.00    +0.367 C 
ATOM     31  OD2 ASP A   1       8.221  16.402  18.881  0.00  0.00    -0.246 OA
ATOM     32  OD1 ASP A   1       7.582  14.901  17.404  0.00  0.00    -0.246 OA
ENDBRANCH  29  30
ENDBRANCH  26  29
ENDBRANCH  22  26
ENDBRANCH  21  23
BRANCH  21  33
ATOM     33  CB  THR A   2       9.056  20.851  13.617  0.00  0.00    +0.137 C 
ATOM     34  CG2 THR A   2       8.043  21.069  14.776  0.00  0.00    +0.034 C 
BRANCH  33  35
ATOM     35  OG1 THR A   2      10.418  20.951  14.078  0.00  0.00    -0.382 OA
ATOM     36  HG1 THR A   2      10.543  21.812  14.551  0.00  0.00    +0.210 HD
ENDBRANCH  33  35
ENDBRANCH  21  33
ENDBRANCH   1  21
TORSDOF 16
REMARK  Name = ../refined-set-2016/4pow/4pow_pocket.pdb
REMARK  213 active torsions:
REMARK  status: ('A' for Active; 'I' for Inactive)
REMARK    1  A    between atoms: _1  and  _3
REMARK    2  A    between atoms: _3  and  _4
REMARK    3  A    between atoms: _3  and  _6
REMARK    4  A    between atoms: _6  and  _7
REMARK    5  A    between atoms: _10  and  _12
REMARK    6  A    between atoms: _12  and  _13
REMARK    7  A    between atoms: _12  and  _15
REMARK    8  A    between atoms: _15  and  _16
REMARK    9  A    between atoms: _16  and  _17
REMARK   10  A    between atoms: _20  and  _22
REMARK   11  A    between atoms: _22  and  _23
REMARK   12  A    between atoms: _25  and  _27
REMARK   13  A    between atoms: _27  and  _28
REMARK   14  A    between atoms: _27  and  _30
REMARK   15  A    between atoms: _30  and  _31
REMARK   16  A    between atoms: _33  and  _35
REMARK   17  A    between atoms: _35  and  _36
REMARK   18  A    between atoms: _35  and  _38
REMARK   19  A    between atoms: _38  and  _39
REMARK   20  A    between atoms: _44  and  _45
REMARK   21  A    between atoms: _47  and  _49
REMARK   22  A    between atoms: _49  and  _50
REMARK   23  A    between atoms: _54  and  _55
REMARK   24  A    between atoms: _60  and  _62
REMARK   25  A    between atoms: _62  and  _63
REMARK   26  A    between atoms: _62  and  _65
REMARK   27  A    between atoms: _65  and  _66
REMARK   28  A    between atoms: _71  and  _72
REMARK   29  A    between atoms: _74  and  _76
REMARK   30  A    between atoms: _76  and  _77
REMARK   31  A    between atoms: _76  and  _79
REMARK   32  A    between atoms: _79  and  _80
REMARK   33  A    between atoms: _85  and  _87
REMARK   34  A    between atoms: _87  and  _88
REMARK   35  A    between atoms: _87  and  _90
REMARK   36  A    between atoms: _90  and  _91
REMARK   37  A    between atoms: _94  and  _96
REMARK   38  A    between atoms: _96  and  _97
REMARK   39  A    between atoms: _96  and  _99
REMARK   40  A    between atoms: _99  and  _100
REMARK   41  A    between atoms: _100  and  _101
REMARK   42  A    between atoms: _106  and  _108
REMARK   43  A    between atoms: _108  and  _109
REMARK   44  A    between atoms: _112  and  _114
REMARK   45  A    between atoms: _114  and  _115
REMARK   46  A    between atoms: _114  and  _117
REMARK   47  A    between atoms: _117  and  _118
REMARK   48  A    between atoms: _128  and  _130
REMARK   49  A    between atoms: _130  and  _131
REMARK   50  A    between atoms: _130  and  _133
REMARK   51  A    between atoms: _133  and  _134
REMARK   52  A    between atoms: _137  and  _139
REMARK   53  A    between atoms: _139  and  _140
REMARK   54  A    between atoms: _139  and  _142
REMARK   55  A    between atoms: _142  and  _143
REMARK   56  A    between atoms: _146  and  _148
REMARK   57  A    between atoms: _148  and  _149
REMARK   58  A    between atoms: _148  and  _151
REMARK   59  A    between atoms: _151  and  _152
REMARK   60  A    between atoms: _152  and  _153
REMARK   61  A    between atoms: _155  and  _157
REMARK   62  A    between atoms: _157  and  _158
REMARK   63  A    between atoms: _161  and  _163
REMARK   64  A    between atoms: _163  and  _164
REMARK   65  A    between atoms: _167  and  _169
REMARK   66  A    between atoms: _169  and  _170
REMARK   67  A    between atoms: _169  and  _172
REMARK   68  A    between atoms: _172  and  _173
REMARK   69  A    between atoms: _173  and  _174
REMARK   70  A    between atoms: _176  and  _178
REMARK   71  A    between atoms: _178  and  _179
REMARK   72  A    between atoms: _181  and  _183
REMARK   73  A    between atoms: _183  and  _184
REMARK   74  A    between atoms: _183  and  _186
REMARK   75  A    between atoms: _186  and  _187
REMARK   76  A    between atoms: _190  and  _192
REMARK   77  A    between atoms: _192  and  _193
REMARK   78  A    between atoms: _192  and  _195
REMARK   79  A    between atoms: _195  and  _196
REMARK   80  A    between atoms: _196  and  _197
REMARK   81  A    between atoms: _202  and  _204
REMARK   82  A    between atoms: _204  and  _205
REMARK   83  A    between atoms: _204  and  _207
REMARK   84  A    between atoms: _207  and  _208
REMARK   85  A    between atoms: _208  and  _209
REMARK   86  A    between atoms: _209  and  _210
REMARK   87  A    between atoms: _219  and  _221
REMARK   88  A    between atoms: _221  and  _222
REMARK   89  A    between atoms: _221  and  _224
REMARK   90  A    between atoms: _224  and  _225
REMARK   91  A    between atoms: _231  and  _233
REMARK   92  A    between atoms: _233  and  _234
REMARK   93  A    between atoms: _233  and  _236
REMARK   94  A    between atoms: _236  and  _237
REMARK   95  A    between atoms: _240  and  _242
REMARK   96  A    between atoms: _242  and  _243
REMARK   97  A    between atoms: _242  and  _245
REMARK   98  A    between atoms: _245  and  _246
REMARK   99  A    between atoms: _249  and  _251
REMARK  100  A    between atoms: _251  and  _252
REMARK  101  A    between atoms: _251  and  _254
REMARK  102  A    between atoms: _254  and  _255
REMARK  103  A    between atoms: _259  and  _260
REMARK  104  A    between atoms: _265  and  _267
REMARK  105  A    between atoms: _267  and  _268
REMARK  106  A    between atoms: _267  and  _270
REMARK  107  A    between atoms: _270  and  _271
REMARK  108  A    between atoms: _271  and  _272
REMARK  109  A    between atoms: _274  and  _276
REMARK  110  A    between atoms: _276  and  _277
REMARK  111  A    between atoms: _276  and  _279
REMARK  112  A    between atoms: _279  and  _280
REMARK  113  A    between atoms: _283  and  _285
REMARK  114  A    between atoms: _285  and  _286
REMARK  115  A    between atoms: _285  and  _288
REMARK  116  A    between atoms: _288  and  _289
REMARK  117  A    between atoms: _289  and  _290
REMARK  118  A    between atoms: _295  and  _297
REMARK  119  A    between atoms: _297  and  _298
REMARK  120  A    between atoms: _301  and  _303
REMARK  121  A    between atoms: _303  and  _304
REMARK  122  A    between atoms: _306  and  _308
REMARK  123  A    between atoms: _308  and  _309
REMARK  124  A    between atoms: _308  and  _311
REMARK  125  A    between atoms: _311  and  _312
REMARK  126  A    between atoms: _315  and  _317
REMARK  127  A    between atoms: _317  and  _318
REMARK  128  A    between atoms: _317  and  _320
REMARK  129  A    between atoms: _320  and  _321
REMARK  130  A    between atoms: _323  and  _325
REMARK  131  A    between atoms: _325  and  _326
REMARK  132  A    between atoms: _325  and  _328
REMARK  133  A    between atoms: _328  and  _329
REMARK  134  A    between atoms: _334  and  _336
REMARK  135  A    between atoms: _336  and  _337
REMARK  136  A    between atoms: _336  and  _339
REMARK  137  A    between atoms: _339  and  _340
REMARK  138  A    between atoms: _340  and  _341
REMARK  139  A    between atoms: _344  and  _346
REMARK  140  A    between atoms: _346  and  _347
REMARK  141  A    between atoms: _350  and  _352
REMARK  142  A    between atoms: _352  and  _353
REMARK  143  A    between atoms: _352  and  _355
REMARK  144  A    between atoms: _355  and  _356
REMARK  145  A    between atoms: _362  and  _364
REMARK  146  A    between atoms: _364  and  _365
REMARK  147  A    between atoms: _364  and  _367
REMARK  148  A    between atoms: _367  and  _368
REMARK  149  A    between atoms: _371  and  _373
REMARK  150  A    between atoms: _373  and  _374
REMARK  151  A    between atoms: _373  and  _376
REMARK  152  A    between atoms: _376  and  _377
REMARK  153  A    between atoms: _380  and  _382
REMARK  154  A    between atoms: _382  and  _383
REMARK  155  A    between atoms: _382  and  _385
REMARK  156  A    between atoms: _385  and  _386
REMARK  157  A    between atoms: _389  and  _391
REMARK  158  A    between atoms: _391  and  _392
REMARK  159  A    between atoms: _391  and  _394
REMARK  160  A    between atoms: _394  and  _395
REMARK  161  A    between atoms: _398  and  _400
REMARK  162  A    between atoms: _400  and  _401
REMARK  163  A    between atoms: _400  and  _403
REMARK  164  A    between atoms: _403  and  _404
REMARK  165  A    between atoms: _407  and  _409
REMARK  166  A    between atoms: _409  and  _410
REMARK  167  A    between atoms: _413  and  _415
REMARK  168  A    between atoms: _415  and  _416
REMARK  169  A    between atoms: _415  and  _418
REMARK  170  A    between atoms: _418  and  _419
REMARK  171  A    between atoms: _421  and  _423
REMARK  172  A    between atoms: _423  and  _424
REMARK  173  A    between atoms: _423  and  _426
REMARK  174  A    between atoms: _429  and  _431
REMARK  175  A    between atoms: _431  and  _432
REMARK  176  A    between atoms: _431  and  _434
REMARK  177  A    between atoms: _434  and  _435
REMARK  178  A    between atoms: _437  and  _439
REMARK  179  A    between atoms: _439  and  _440
REMARK  180  A    between atoms: _439  and  _442
REMARK  181  A    between atoms: _442  and  _443
REMARK  182  A    between atoms: _449  and  _451
REMARK  183  A    between atoms: _451  and  _452
REMARK  184  A    between atoms: _451  and  _454
REMARK  185  A    between atoms: _454  and  _455
REMARK  186  A    between atoms: _458  and  _460
REMARK  187  A    between atoms: _460  and  _461
REMARK  188  A    between atoms: _460  and  _463
REMARK  189  A    between atoms: _463  and  _464
REMARK  190  A    between atoms: _467  and  _469
REMARK  191  A    between atoms: _469  and  _470
REMARK  192  A    between atoms: _469  and  _472
REMARK  193  A    between atoms: _472  and  _473
REMARK  194  A    between atoms: _479  and  _481
REMARK  195  A    between atoms: _481  and  _482
REMARK  196  A    between atoms: _484  and  _486
REMARK  197  A    between atoms: _486  and  _487
REMARK  198  A    between atoms: _486  and  _489
REMARK  199  A    between atoms: _489  and  _490
REMARK  200  A    between atoms: _490  and  _491
REMARK  201  A    between atoms: _491  and  _492
REMARK  202  A    between atoms: _492  and  _493
REMARK  203  A    between atoms: _497  and  _499
REMARK  204  A    between atoms: _499  and  _500
REMARK  205  A    between atoms: _502  and  _504
REMARK  206  A    between atoms: _504  and  _505
REMARK  207  A    between atoms: _504  and  _507
REMARK  208  A    between atoms: _510  and  _512
REMARK  209  A    between atoms: _512  and  _513
REMARK  210  A    between atoms: _515  and  _517
REMARK  211  A    between atoms: _517  and  _518
REMARK  212  A    between atoms: _517  and  _520
REMARK  213  A    between atoms: _520  and  _521
REMARK                            x       y       z     vdW  Elec       q    Type
REMARK                         _______ _______ _______ _____ _____    ______ ____
ROOT
ATOM      1  C   VAL A   4      10.039  23.868  -3.192  0.00  0.00    +0.241 C 
ATOM      2  O   VAL A   4      10.913  24.696  -2.929  0.00  0.00    -0.273 OA
ATOM      3  N   SER A   5       8.721  24.096  -2.930  0.00  0.00    -0.295 N 
ATOM      4  H   SER A   5       8.008  23.373  -3.153  0.00  0.00    +0.150 HD
ENDROOT
BRANCH   3   5
ATOM      5  CA  SER A   5       8.322  25.369  -2.332  0.00  0.00    +0.178 C 
BRANCH   5   6
ATOM      6  C   SER A   5       8.945  25.584  -0.938  0.00  0.00    +0.243 C 
ATOM      7  N   PHE A   6       9.233  24.496  -0.208  0.00  0.00    -0.297 N 
ATOM      8  H   PHE A   6       8.971  23.551  -0.554  0.00  0.00    +0.150 HD
ATOM      9  O   SER A   5       9.233  26.724  -0.565  0.00  0.00    -0.273 OA
BRANCH   7  10
ATOM     10  CA  PHE A   6       9.922  24.645   1.086  0.00  0.00    +0.153 C 
BRANCH  10  11
ATOM     11  C   PHE A   6      11.461  24.677   0.857  0.00  0.00    +0.241 C 
ATOM     12  O   PHE A   6      12.190  25.457   1.479  0.00  0.00    -0.273 OA
ATOM     13  N   LEU A   7      11.972  23.784  -0.008  0.00  0.00    -0.298 N 
ATOM     14  H   LEU A   7      11.326  23.192  -0.568  0.00  0.00    +0.150 HD
BRANCH  13  15
ATOM     15  CA  LEU A   7      13.405  23.626  -0.179  0.00  0.00    +0.137 C 
BRANCH  15  16
ATOM     16  C   LEU A   7      14.113  24.715  -0.945  0.00  0.00    +0.227 C 
ATOM     17  O   LEU A   7      15.297  24.963  -0.669  0.00  0.00    -0.286 OA
ENDBRANCH  15  16
BRANCH  15  18
ATOM     18  CB  LEU A   7      13.693  22.258  -0.823  0.00  0.00    +0.028 C 
BRANCH  18  19
ATOM     19  CG  LEU A   7      13.266  21.045  -0.029  0.00  0.00    +0.002 C 
ATOM     20  CD2 LEU A   7      14.047  20.950   1.285  0.00  0.00    +0.000 C 
ATOM     21  CD1 LEU A   7      13.535  19.779  -0.857  0.00  0.00    +0.000 C 
ENDBRANCH  18  19
ENDBRANCH  15  18
ENDBRANCH  13  15
ENDBRANCH  10  11
BRANCH  10  22
ATOM     22  CB  PHE A   6       9.571  23.433   1.975  0.00  0.00    +0.055 C 
BRANCH  22  23
ATOM     23  CG  PHE A   6      10.374  23.412   3.243  0.00  0.00    -0.020 A 
ATOM     24  CD2 PHE A   6      10.034  24.238   4.321  0.00  0.00    -0.004 A 
ATOM     25  CE2 PHE A   6      10.826  24.260   5.481  0.00  0.00    -0.000 A 
ATOM     26  CZ  PHE A   6      11.946  23.431   5.575  0.00  0.00    -0.000 A 
ATOM     27  CE1 PHE A   6      12.282  22.595   4.515  0.00  0.00    -0.000 A 
ATOM     28  CD1 PHE A   6      11.495  22.582   3.363  0.00  0.00    -0.004 A 
ENDBRANCH  22  23
ENDBRANCH  10  22
ENDBRANCH   7  10
ENDBRANCH   5   6
BRANCH   5  29
ATOM     29  CB  SER A   5       6.807  25.510  -2.282  0.00  0.00    +0.166 C 
BRANCH  29  30
ATOM     30  OG  SER A   5       6.254  24.528  -1.417  0.00  0.00    -0.380 OA
ATOM     31  H   SER A   5       5.269  24.629  -1.392  0.00  0.00    +0.211 HD
ENDBRANCH  29  30
ENDBRANCH   5  29
ENDBRANCH   3   5
BRANCH   1  32
ATOM     32  CA  VAL A   4      10.428  22.522  -3.837  0.00  0.00    +0.149 C 
BRANCH  32  35
ATOM     33  C   SER A   3       9.487  21.235  -1.994  0.00  0.00    +0.243 C 
ATOM     34  O   SER A   3      10.242  21.794  -1.163  0.00  0.00    -0.273 OA
ATOM     35  N   VAL A   4       9.541  21.493  -3.320  0.00  0.00    -0.297 N 
ATOM     36  H   VAL A   4       8.943  20.951  -3.976  0.00  0.00    +0.150 HD
BRANCH  33  37
ATOM     37  CA  SER A   3       8.396  20.275  -1.546  0.00  0.00    +0.178 C 
BRANCH  37  39
ATOM     38  C   ALA A   2       9.672  18.688  -0.322  0.00  0.00    +0.241 C 
ATOM     39  N   SER A   3       8.708  19.625  -0.287  0.00  0.00    -0.295 N 
ATOM     40  H   SER A   3       8.213  19.870   0.594  0.00  0.00    +0.150 HD
ATOM     41  O   ALA A   2      10.249  18.392  -1.373  0.00  0.00    -0.273 OA
BRANCH  38  42
ATOM     42  CA  ALA A   2      10.054  18.011   0.983  0.00  0.00    +0.149 C 
ATOM     43  CB  ALA A   2      10.544  19.063   1.989  0.00  0.00    +0.031 C 
BRANCH  42  46
ATOM     44  C   LEU A   1      11.398  16.070   1.628  0.00  0.00    +0.238 C 
ATOM     45  O   LEU A   1      10.930  16.030   2.770  0.00  0.00    -0.274 OA
ATOM     46  N   ALA A   2      11.080  16.999   0.741  0.00  0.00    -0.297 N 
ATOM     47  H   ALA A   2      11.583  17.009  -0.169  0.00  0.00    +0.150 HD
BRANCH  44  48
ATOM     48  CA  LEU A   1      12.403  15.021   1.194  0.00  0.00    +0.145 C 
BRANCH  48  49
ATOM     49  N   LEU A   1      13.306  14.870   2.328  0.00  0.00    -0.238 NA
ATOM     50  H   LEU A   1      12.912  14.978   3.284  0.00  0.00    +0.142 HD
ENDBRANCH  48  49
BRANCH  48  51
ATOM     51  CB  LEU A   1      11.680  13.673   0.980  0.00  0.00    +0.026 C 
BRANCH  51  52
ATOM     52  CG  LEU A   1      10.461  13.610   0.073  0.00  0.00    +0.002 C 
ATOM     53  CD2 LEU A   1       9.867  12.215   0.073  0.00  0.00    +0.000 C 
ATOM     54  CD1 LEU A   1      10.811  13.958  -1.364  0.00  0.00    +0.000 C 
ENDBRANCH  51  52
ENDBRANCH  48  51
ENDBRANCH  44  48
ENDBRANCH  42  46
ENDBRANCH  38  42
ENDBRANCH  37  39
BRANCH  37  55
ATOM     55  CB  SER A   3       7.105  21.072  -1.452  0.00  0.00    +0.166 C 
BRANCH  55  56
ATOM     56  OG  SER A   3       7.285  22.198  -0.606  0.00  0.00    -0.380 OA
ATOM     57  H   SER A   3       6.438  22.708  -0.553  0.00  0.00    +0.211 HD
ENDBRANCH  55  56
ENDBRANCH  37  55
ENDBRANCH  33  37
ENDBRANCH  32  35
BRANCH  32  58
ATOM     58  CB  VAL A   4      10.301  22.555  -5.386  0.00  0.00    +0.027 C 
ATOM     59  CG2 VAL A   4      10.979  23.791  -5.984  0.00  0.00    +0.002 C 
ATOM     60  CG1 VAL A   4      10.846  21.268  -6.006  0.00  0.00    +0.002 C 
ENDBRANCH  32  58
ENDBRANCH   1  32
TORSDOF 25
REMARK  Name = ../refined-set-2016/4pow/4pow_pocket.pdb
REMARK  213 active torsions:
REMARK  status: ('A' for Active; 'I' for Inactive)
REMARK    1  A    between atoms: _1  and  _3
REMARK    2  A    between atoms: _3  and  _4
REMARK    3  A    between atoms: _3  and  _6
REMARK    4  A    between atoms: _6  and  _7
REMARK    5  A    between atoms: _10  and  _12
REMARK    6  A    between atoms: _12  and  _13
REMARK    7  A    between atoms: _12  and  _15
REMARK    8  A    between atoms: _15  and  _16
REMARK    9  A    between atoms: _16  and  _17
REMARK   10  A    between atoms: _20  and  _22
REMARK   11  A    between atoms: _22  and  _23
REMARK   12  A    between atoms: _25  and  _27
REMARK   13  A    between atoms: _27  and  _28
REMARK   14  A    between atoms: _27  and  _30
REMARK   15  A    between atoms: _30  and  _31
REMARK   16  A    between atoms: _33  and  _35
REMARK   17  A    between atoms: _35  and  _36
REMARK   18  A    between atoms: _35  and  _38
REMARK   19  A    between atoms: _38  and  _39
REMARK   20  A    between atoms: _44  and  _45
REMARK   21  A    between atoms: _47  and  _49
REMARK   22  A    between atoms: _49  and  _50
REMARK   23  A    between atoms: _54  and  _55
REMARK   24  A    between atoms: _60  and  _62
REMARK   25  A    between atoms: _62  and  _63
REMARK   26  A    between atoms: _62  and  _65
REMARK   27  A    between atoms: _65  and  _66
REMARK   28  A    between atoms: _71  and  _72
REMARK   29  A    between atoms: _74  and  _76
REMARK   30  A    between atoms: _76  and  _77
REMARK   31  A    between atoms: _76  and  _79
REMARK   32  A    between atoms: _79  and  _80
REMARK   33  A    between atoms: _85  and  _87
REMARK   34  A    between atoms: _87  and  _88
REMARK   35  A    between atoms: _87  and  _90
REMARK   36  A    between atoms: _90  and  _91
REMARK   37  A    between atoms: _94  and  _96
REMARK   38  A    between atoms: _96  and  _97
REMARK   39  A    between atoms: _96  and  _99
REMARK   40  A    between atoms: _99  and  _100
REMARK   41  A    between atoms: _100  and  _101
REMARK   42  A    between atoms: _106  and  _108
REMARK   43  A    between atoms: _108  and  _109
REMARK   44  A    between atoms: _112  and  _114
REMARK   45  A    between atoms: _114  and  _115
REMARK   46  A    between atoms: _114  and  _117
REMARK   47  A    between atoms: _117  and  _118
REMARK   48  A    between atoms: _128  and  _130
REMARK   49  A    between atoms: _130  and  _131
REMARK   50  A    between atoms: _130  and  _133
REMARK   51  A    between atoms: _133  and  _134
REMARK   52  A    between atoms: _137  and  _139
REMARK   53  A    between atoms: _139  and  _140
REMARK   54  A    between atoms: _139  and  _142
REMARK   55  A    between atoms: _142  and  _143
REMARK   56  A    between atoms: _146  and  _148
REMARK   57  A    between atoms: _148  and  _149
REMARK   58  A    between atoms: _148  and  _151
REMARK   59  A    between atoms: _151  and  _152
REMARK   60  A    between atoms: _152  and  _153
REMARK   61  A    between atoms: _155  and  _157
REMARK   62  A    between atoms: _157  and  _158
REMARK   63  A    between atoms: _161  and  _163
REMARK   64  A    between atoms: _163  and  _164
REMARK   65  A    between atoms: _167  and  _169
REMARK   66  A    between atoms: _169  and  _170
REMARK   67  A    between atoms: _169  and  _172
REMARK   68  A    between atoms: _172  and  _173
REMARK   69  A    between atoms: _173  and  _174
REMARK   70  A    between atoms: _176  and  _178
REMARK   71  A    between atoms: _178  and  _179
REMARK   72  A    between atoms: _181  and  _183
REMARK   73  A    between atoms: _183  and  _184
REMARK   74  A    between atoms: _183  and  _186
REMARK   75  A    between atoms: _186  and  _187
REMARK   76  A    between atoms: _190  and  _192
REMARK   77  A    between atoms: _192  and  _193
REMARK   78  A    between atoms: _192  and  _195
REMARK   79  A    between atoms: _195  and  _196
REMARK   80  A    between atoms: _196  and  _197
REMARK   81  A    between atoms: _202  and  _204
REMARK   82  A    between atoms: _204  and  _205
REMARK   83  A    between atoms: _204  and  _207
REMARK   84  A    between atoms: _207  and  _208
REMARK   85  A    between atoms: _208  and  _209
REMARK   86  A    between atoms: _209  and  _210
REMARK   87  A    between atoms: _219  and  _221
REMARK   88  A    between atoms: _221  and  _222
REMARK   89  A    between atoms: _221  and  _224
REMARK   90  A    between atoms: _224  and  _225
REMARK   91  A    between atoms: _231  and  _233
REMARK   92  A    between atoms: _233  and  _234
REMARK   93  A    between atoms: _233  and  _236
REMARK   94  A    between atoms: _236  and  _237
REMARK   95  A    between atoms: _240  and  _242
REMARK   96  A    between atoms: _242  and  _243
REMARK   97  A    between atoms: _242  and  _245
REMARK   98  A    between atoms: _245  and  _246
REMARK   99  A    between atoms: _249  and  _251
REMARK  100  A    between atoms: _251  and  _252
REMARK  101  A    between atoms: _251  and  _254
REMARK  102  A    between atoms: _254  and  _255
REMARK  103  A    between atoms: _259  and  _260
REMARK  104  A    between atoms: _265  and  _267
REMARK  105  A    between atoms: _267  and  _268
REMARK  106  A    between atoms: _267  and  _270
REMARK  107  A    between atoms: _270  and  _271
REMARK  108  A    between atoms: _271  and  _272
REMARK  109  A    between atoms: _274  and  _276
REMARK  110  A    between atoms: _276  and  _277
REMARK  111  A    between atoms: _276  and  _279
REMARK  112  A    between atoms: _279  and  _280
REMARK  113  A    between atoms: _283  and  _285
REMARK  114  A    between atoms: _285  and  _286
REMARK  115  A    between atoms: _285  and  _288
REMARK  116  A    between atoms: _288  and  _289
REMARK  117  A    between atoms: _289  and  _290
REMARK  118  A    between atoms: _295  and  _297
REMARK  119  A    between atoms: _297  and  _298
REMARK  120  A    between atoms: _301  and  _303
REMARK  121  A    between atoms: _303  and  _304
REMARK  122  A    between atoms: _306  and  _308
REMARK  123  A    between atoms: _308  and  _309
REMARK  124  A    between atoms: _308  and  _311
REMARK  125  A    between atoms: _311  and  _312
REMARK  126  A    between atoms: _315  and  _317
REMARK  127  A    between atoms: _317  and  _318
REMARK  128  A    between atoms: _317  and  _320
REMARK  129  A    between atoms: _320  and  _321
REMARK  130  A    between atoms: _323  and  _325
REMARK  131  A    between atoms: _325  and  _326
REMARK  132  A    between atoms: _325  and  _328
REMARK  133  A    between atoms: _328  and  _329
REMARK  134  A    between atoms: _334  and  _336
REMARK  135  A    between atoms: _336  and  _337
REMARK  136  A    between atoms: _336  and  _339
REMARK  137  A    between atoms: _339  and  _340
REMARK  138  A    between atoms: _340  and  _341
REMARK  139  A    between atoms: _344  and  _346
REMARK  140  A    between atoms: _346  and  _347
REMARK  141  A    between atoms: _350  and  _352
REMARK  142  A    between atoms: _352  and  _353
REMARK  143  A    between atoms: _352  and  _355
REMARK  144  A    between atoms: _355  and  _356
REMARK  145  A    between atoms: _362  and  _364
REMARK  146  A    between atoms: _364  and  _365
REMARK  147  A    between atoms: _364  and  _367
REMARK  148  A    between atoms: _367  and  _368
REMARK  149  A    between atoms: _371  and  _373
REMARK  150  A    between atoms: _373  and  _374
REMARK  151  A    between atoms: _373  and  _376
REMARK  152  A    between atoms: _376  and  _377
REMARK  153  A    between atoms: _380  and  _382
REMARK  154  A    between atoms: _382  and  _383
REMARK  155  A    between atoms: _382  and  _385
REMARK  156  A    between atoms: _385  and  _386
REMARK  157  A    between atoms: _389  and  _391
REMARK  158  A    between atoms: _391  and  _392
REMARK  159  A    between atoms: _391  and  _394
REMARK  160  A    between atoms: _394  and  _395
REMARK  161  A    between atoms: _398  and  _400
REMARK  162  A    between atoms: _400  and  _401
REMARK  163  A    between atoms: _400  and  _403
REMARK  164  A    between atoms: _403  and  _404
REMARK  165  A    between atoms: _407  and  _409
REMARK  166  A    between atoms: _409  and  _410
REMARK  167  A    between atoms: _413  and  _415
REMARK  168  A    between atoms: _415  and  _416
REMARK  169  A    between atoms: _415  and  _418
REMARK  170  A    between atoms: _418  and  _419
REMARK  171  A    between atoms: _421  and  _423
REMARK  172  A    between atoms: _423  and  _424
REMARK  173  A    between atoms: _423  and  _426
REMARK  174  A    between atoms: _429  and  _431
REMARK  175  A    between atoms: _431  and  _432
REMARK  176  A    between atoms: _431  and  _434
REMARK  177  A    between atoms: _434  and  _435
REMARK  178  A    between atoms: _437  and  _439
REMARK  179  A    between atoms: _439  and  _440
REMARK  180  A    between atoms: _439  and  _442
REMARK  181  A    between atoms: _442  and  _443
REMARK  182  A    between atoms: _449  and  _451
REMARK  183  A    between atoms: _451  and  _452
REMARK  184  A    between atoms: _451  and  _454
REMARK  185  A    between atoms: _454  and  _455
REMARK  186  A    between atoms: _458  and  _460
REMARK  187  A    between atoms: _460  and  _461
REMARK  188  A    between atoms: _460  and  _463
REMARK  189  A    between atoms: _463  and  _464
REMARK  190  A    between atoms: _467  and  _469
REMARK  191  A    between atoms: _469  and  _470
REMARK  192  A    between atoms: _469  and  _472
REMARK  193  A    between atoms: _472  and  _473
REMARK  194  A    between atoms: _479  and  _481
REMARK  195  A    between atoms: _481  and  _482
REMARK  196  A    between atoms: _484  and  _486
REMARK  197  A    between atoms: _486  and  _487
REMARK  198  A    between atoms: _486  and  _489
REMARK  199  A    between atoms: _489  and  _490
REMARK  200  A    between atoms: _490  and  _491
REMARK  201  A    between atoms: _491  and  _492
REMARK  202  A    between atoms: _492  and  _493
REMARK  203  A    between atoms: _497  and  _499
REMARK  204  A    between atoms: _499  and  _500
REMARK  205  A    between atoms: _502  and  _504
REMARK  206  A    between atoms: _504  and  _505
REMARK  207  A    between atoms: _504  and  _507
REMARK  208  A    between atoms: _510  and  _512
REMARK  209  A    between atoms: _512  and  _513
REMARK  210  A    between atoms: _515  and  _517
REMARK  211  A    between atoms: _517  and  _518
REMARK  212  A    between atoms: _517  and  _520
REMARK  213  A    between atoms: _520  and  _521
REMARK                            x       y       z     vdW  Elec       q    Type
REMARK                         _______ _______ _______ _____ _____    ______ ____
ROOT
ATOM      1  CA  LYS A   4      -1.982  18.019  -6.300  0.00  0.00    +0.149 C 
ENDROOT
BRANCH   1   2
ATOM      2  C   LYS A   4      -2.387  19.276  -5.588  0.00  0.00    +0.241 C 
ATOM      3  O   LYS A   4      -3.567  19.458  -5.279  0.00  0.00    -0.273 OA
ATOM      4  N   GLY A   5      -1.402  20.130  -5.381  0.00  0.00    -0.295 N 
ATOM      5  H   GLY A   5      -0.432  19.848  -5.629  0.00  0.00    +0.150 HD
BRANCH   4   6
ATOM      6  CA  GLY A   5      -1.627  21.454  -4.817  0.00  0.00    +0.176 C 
BRANCH   6   7
ATOM      7  C   GLY A   5      -1.621  21.503  -3.303  0.00  0.00    +0.243 C 
ATOM      8  O   GLY A   5      -1.641  20.474  -2.620  0.00  0.00    -0.273 OA
ATOM      9  N   VAL A   6      -1.605  22.731  -2.799  0.00  0.00    -0.297 N 
ATOM     10  H   VAL A   6      -1.508  23.525  -3.464  0.00  0.00    +0.150 HD
BRANCH   9  11
ATOM     11  CA  VAL A   6      -1.713  23.043  -1.390  0.00  0.00    +0.149 C 
BRANCH  11  12
ATOM     12  C   VAL A   6      -3.065  23.731  -1.254  0.00  0.00    +0.241 C 
ATOM     13  N   GLY A   7      -3.852  23.331  -0.257  0.00  0.00    -0.296 N 
ATOM     14  H   GLY A   7      -3.509  22.628   0.428  0.00  0.00    +0.150 HD
ATOM     15  O   VAL A   6      -3.393  24.597  -2.077  0.00  0.00    -0.273 OA
BRANCH  13  16
ATOM     16  CA  GLY A   7      -5.195  23.881  -0.129  0.00  0.00    +0.163 C 
BRANCH  16  17
ATOM     17  C   GLY A   7      -5.597  24.178   1.290  0.00  0.00    +0.229 C 
ATOM     18  O   GLY A   7      -4.901  23.780   2.240  0.00  0.00    -0.286 OA
ENDBRANCH  16  17
ENDBRANCH  13  16
ENDBRANCH  11  12
BRANCH  11  19
ATOM     19  CB  VAL A   6      -0.569  23.995  -0.988  0.00  0.00    +0.027 C 
ATOM     20  CG2 VAL A   6      -0.713  24.419   0.472  0.00  0.00    +0.002 C 
ATOM     21  CG1 VAL A   6       0.784  23.328  -1.251  0.00  0.00    +0.002 C 
ENDBRANCH  11  19
ENDBRANCH   9  11
ENDBRANCH   6   7
ENDBRANCH   4   6
ENDBRANCH   1   2
BRANCH   1  23
ATOM     22  C   GLY A   3      -1.589  15.769  -5.487  0.00  0.00    +0.243 C 
ATOM     23  N   LYS A   4      -2.334  16.874  -5.474  0.00  0.00    -0.297 N 
ATOM     24  H   LYS A   4      -3.177  16.918  -4.866  0.00  0.00    +0.150 HD
ATOM     25  O   GLY A   3      -0.560  15.668  -6.161  0.00  0.00    -0.273 OA
BRANCH  22  26
ATOM     26  CA  GLY A   3      -2.051  14.615  -4.613  0.00  0.00    +0.176 C 
BRANCH  26  29
ATOM     27  C   PHE A   2      -0.053  14.411  -3.247  0.00  0.00    +0.241 C 
ATOM     28  O   PHE A   2      -0.223  15.521  -2.702  0.00  0.00    -0.273 OA
ATOM     29  N   GLY A   3      -0.891  13.877  -4.136  0.00  0.00    -0.295 N 
ATOM     30  H   GLY A   3      -0.713  12.917  -4.494  0.00  0.00    +0.150 HD
BRANCH  27  31
ATOM     31  CA  PHE A   2       1.172  13.608  -2.894  0.00  0.00    +0.153 C 
BRANCH  31  34
ATOM     32  C   LEU A   1       0.201  11.412  -2.418  0.00  0.00    +0.238 C 
ATOM     33  O   LEU A   1      -0.451  11.845  -1.462  0.00  0.00    -0.274 OA
ATOM     34  N   PHE A   2       1.012  12.191  -3.179  0.00  0.00    -0.297 N 
ATOM     35  H   PHE A   2       1.526  11.768  -3.978  0.00  0.00    +0.150 HD
BRANCH  32  36
ATOM     36  CA  LEU A   1       0.059   9.939  -2.796  0.00  0.00    +0.145 C 
BRANCH  36  37
ATOM     37  N   LEU A   1       0.475   9.664  -4.168  0.00  0.00    -0.238 NA
ATOM     38  H   LEU A   1       1.294   9.047  -4.343  0.00  0.00    +0.142 HD
ENDBRANCH  36  37
BRANCH  36  39
ATOM     39  CB  LEU A   1       0.772   9.018  -1.783  0.00  0.00    +0.026 C 
BRANCH  39  40
ATOM     40  CG  LEU A   1       2.298   9.111  -1.731  0.00  0.00    +0.002 C 
ATOM     41  CD2 LEU A   1       2.707  10.199  -0.784  0.00  0.00    +0.000 C 
ATOM     42  CD1 LEU A   1       2.881   7.783  -1.221  0.00  0.00    +0.000 C 
ENDBRANCH  39  40
ENDBRANCH  36  39
ENDBRANCH  32  36
ENDBRANCH  31  34
BRANCH  31  43
ATOM     43  CB  PHE A   2       2.368  14.187  -3.653  0.00  0.00    +0.055 C 
BRANCH  43  44
ATOM     44  CG  PHE A   2       3.717  13.640  -3.243  0.00  0.00    -0.020 A 
ATOM     45  CD2 PHE A   2       4.186  13.808  -1.946  0.00  0.00    -0.004 A 
ATOM     46  CE2 PHE A   2       5.428  13.301  -1.559  0.00  0.00    -0.000 A 
ATOM     47  CZ  PHE A   2       6.227  12.662  -2.472  0.00  0.00    -0.000 A 
ATOM     48  CE1 PHE A   2       5.798  12.524  -3.789  0.00  0.00    -0.000 A 
ATOM     49  CD1 PHE A   2       4.539  13.003  -4.165  0.00  0.00    -0.004 A 
ENDBRANCH  43  44
ENDBRANCH  31  43
ENDBRANCH  27  31
ENDBRANCH  26  29
ENDBRANCH  22  26
ENDBRANCH   1  23
BRANCH   1  50
ATOM     50  CB  LYS A   4      -2.686  17.953  -7.671  0.00  0.00    +0.029 C 
BRANCH  50  51
ATOM     51  CG  LYS A   4      -2.314  19.120  -8.585  0.00  0.00    +0.000 C 
BRANCH  51  52
ATOM     52  CD  LYS A   4      -3.091  19.065  -9.892  0.00  0.00    -0.024 C 
BRANCH  52  53
ATOM     53  CE  LYS A   4      -2.767  20.260 -10.763  0.00  0.00    -0.086 C 
BRANCH  53  54
ATOM     54  NZ  LYS A   4      -3.743  20.401 -11.870  0.00  0.00    +0.380 N 
ATOM     55  HZ1 LYS A   4      -4.697  20.528 -11.475  0.00  0.00    -0.089 HD
ATOM     56  HZ2 LYS A   4      -3.493  21.229 -12.448  0.00  0.00    -0.089 HD
ATOM     57  HZ3 LYS A   4      -3.722  19.545 -12.461  0.00  0.00    -0.089 HD
ENDBRANCH  53  54
ENDBRANCH  52  53
ENDBRANCH  51  52
ENDBRANCH  50  51
ENDBRANCH   1  50
TORSDOF 24
REMARK  Name = ../refined-set-2016/4pow/4pow_pocket.pdb
REMARK  213 active torsions:
REMARK  status: ('A' for Active; 'I' for Inactive)
REMARK    1  A    between atoms: _1  and  _3
REMARK    2  A    between atoms: _3  and  _4
REMARK    3  A    between atoms: _3  and  _6
REMARK    4  A    between atoms: _6  and  _7
REMARK    5  A    between atoms: _10  and  _12
REMARK    6  A    between atoms: _12  and  _13
REMARK    7  A    between atoms: _12  and  _15
REMARK    8  A    between atoms: _15  and  _16
REMARK    9  A    between atoms: _16  and  _17
REMARK   10  A    between atoms: _20  and  _22
REMARK   11  A    between atoms: _22  and  _23
REMARK   12  A    between atoms: _25  and  _27
REMARK   13  A    between atoms: _27  and  _28
REMARK   14  A    between atoms: _27  and  _30
REMARK   15  A    between atoms: _30  and  _31
REMARK   16  A    between atoms: _33  and  _35
REMARK   17  A    between atoms: _35  and  _36
REMARK   18  A    between atoms: _35  and  _38
REMARK   19  A    between atoms: _38  and  _39
REMARK   20  A    between atoms: _44  and  _45
REMARK   21  A    between atoms: _47  and  _49
REMARK   22  A    between atoms: _49  and  _50
REMARK   23  A    between atoms: _54  and  _55
REMARK   24  A    between atoms: _60  and  _62
REMARK   25  A    between atoms: _62  and  _63
REMARK   26  A    between atoms: _62  and  _65
REMARK   27  A    between atoms: _65  and  _66
REMARK   28  A    between atoms: _71  and  _72
REMARK   29  A    between atoms: _74  and  _76
REMARK   30  A    between atoms: _76  and  _77
REMARK   31  A    between atoms: _76  and  _79
REMARK   32  A    between atoms: _79  and  _80
REMARK   33  A    between atoms: _85  and  _87
REMARK   34  A    between atoms: _87  and  _88
REMARK   35  A    between atoms: _87  and  _90
REMARK   36  A    between atoms: _90  and  _91
REMARK   37  A    between atoms: _94  and  _96
REMARK   38  A    between atoms: _96  and  _97
REMARK   39  A    between atoms: _96  and  _99
REMARK   40  A    between atoms: _99  and  _100
REMARK   41  A    between atoms: _100  and  _101
REMARK   42  A    between atoms: _106  and  _108
REMARK   43  A    between atoms: _108  and  _109
REMARK   44  A    between atoms: _112  and  _114
REMARK   45  A    between atoms: _114  and  _115
REMARK   46  A    between atoms: _114  and  _117
REMARK   47  A    between atoms: _117  and  _118
REMARK   48  A    between atoms: _128  and  _130
REMARK   49  A    between atoms: _130  and  _131
REMARK   50  A    between atoms: _130  and  _133
REMARK   51  A    between atoms: _133  and  _134
REMARK   52  A    between atoms: _137  and  _139
REMARK   53  A    between atoms: _139  and  _140
REMARK   54  A    between atoms: _139  and  _142
REMARK   55  A    between atoms: _142  and  _143
REMARK   56  A    between atoms: _146  and  _148
REMARK   57  A    between atoms: _148  and  _149
REMARK   58  A    between atoms: _148  and  _151
REMARK   59  A    between atoms: _151  and  _152
REMARK   60  A    between atoms: _152  and  _153
REMARK   61  A    between atoms: _155  and  _157
REMARK   62  A    between atoms: _157  and  _158
REMARK   63  A    between atoms: _161  and  _163
REMARK   64  A    between atoms: _163  and  _164
REMARK   65  A    between atoms: _167  and  _169
REMARK   66  A    between atoms: _169  and  _170
REMARK   67  A    between atoms: _169  and  _172
REMARK   68  A    between atoms: _172  and  _173
REMARK   69  A    between atoms: _173  and  _174
REMARK   70  A    between atoms: _176  and  _178
REMARK   71  A    between atoms: _178  and  _179
REMARK   72  A    between atoms: _181  and  _183
REMARK   73  A    between atoms: _183  and  _184
REMARK   74  A    between atoms: _183  and  _186
REMARK   75  A    between atoms: _186  and  _187
REMARK   76  A    between atoms: _190  and  _192
REMARK   77  A    between atoms: _192  and  _193
REMARK   78  A    between atoms: _192  and  _195
REMARK   79  A    between atoms: _195  and  _196
REMARK   80  A    between atoms: _196  and  _197
REMARK   81  A    between atoms: _202  and  _204
REMARK   82  A    between atoms: _204  and  _205
REMARK   83  A    between atoms: _204  and  _207
REMARK   84  A    between atoms: _207  and  _208
REMARK   85  A    between atoms: _208  and  _209
REMARK   86  A    between atoms: _209  and  _210
REMARK   87  A    between atoms: _219  and  _221
REMARK   88  A    between atoms: _221  and  _222
REMARK   89  A    between atoms: _221  and  _224
REMARK   90  A    between atoms: _224  and  _225
REMARK   91  A    between atoms: _231  and  _233
REMARK   92  A    between atoms: _233  and  _234
REMARK   93  A    between atoms: _233  and  _236
REMARK   94  A    between atoms: _236  and  _237
REMARK   95  A    between atoms: _240  and  _242
REMARK   96  A    between atoms: _242  and  _243
REMARK   97  A    between atoms: _242  and  _245
REMARK   98  A    between atoms: _245  and  _246
REMARK   99  A    between atoms: _249  and  _251
REMARK  100  A    between atoms: _251  and  _252
REMARK  101  A    between atoms: _251  and  _254
REMARK  102  A    between atoms: _254  and  _255
REMARK  103  A    between atoms: _259  and  _260
REMARK  104  A    between atoms: _265  and  _267
REMARK  105  A    between atoms: _267  and  _268
REMARK  106  A    between atoms: _267  and  _270
REMARK  107  A    between atoms: _270  and  _271
REMARK  108  A    between atoms: _271  and  _272
REMARK  109  A    between atoms: _274  and  _276
REMARK  110  A    between atoms: _276  and  _277
REMARK  111  A    between atoms: _276  and  _279
REMARK  112  A    between atoms: _279  and  _280
REMARK  113  A    between atoms: _283  and  _285
REMARK  114  A    between atoms: _285  and  _286
REMARK  115  A    between atoms: _285  and  _288
REMARK  116  A    between atoms: _288  and  _289
REMARK  117  A    between atoms: _289  and  _290
REMARK  118  A    between atoms: _295  and  _297
REMARK  119  A    between atoms: _297  and  _298
REMARK  120  A    between atoms: _301  and  _303
REMARK  121  A    between atoms: _303  and  _304
REMARK  122  A    between atoms: _306  and  _308
REMARK  123  A    between atoms: _308  and  _309
REMARK  124  A    between atoms: _308  and  _311
REMARK  125  A    between atoms: _311  and  _312
REMARK  126  A    between atoms: _315  and  _317
REMARK  127  A    between atoms: _317  and  _318
REMARK  128  A    between atoms: _317  and  _320
REMARK  129  A    between atoms: _320  and  _321
REMARK  130  A    between atoms: _323  and  _325
REMARK  131  A    between atoms: _325  and  _326
REMARK  132  A    between atoms: _325  and  _328
REMARK  133  A    between atoms: _328  and  _329
REMARK  134  A    between atoms: _334  and  _336
REMARK  135  A    between atoms: _336  and  _337
REMARK  136  A    between atoms: _336  and  _339
REMARK  137  A    between atoms: _339  and  _340
REMARK  138  A    between atoms: _340  and  _341
REMARK  139  A    between atoms: _344  and  _346
REMARK  140  A    between atoms: _346  and  _347
REMARK  141  A    between atoms: _350  and  _352
REMARK  142  A    between atoms: _352  and  _353
REMARK  143  A    between atoms: _352  and  _355
REMARK  144  A    between atoms: _355  and  _356
REMARK  145  A    between atoms: _362  and  _364
REMARK  146  A    between atoms: _364  and  _365
REMARK  147  A    between atoms: _364  and  _367
REMARK  148  A    between atoms: _367  and  _368
REMARK  149  A    between atoms: _371  and  _373
REMARK  150  A    between atoms: _373  and  _374
REMARK  151  A    between atoms: _373  and  _376
REMARK  152  A    between atoms: _376  and  _377
REMARK  153  A    between atoms: _380  and  _382
REMARK  154  A    between atoms: _382  and  _383
REMARK  155  A    between atoms: _382  and  _385
REMARK  156  A    between atoms: _385  and  _386
REMARK  157  A    between atoms: _389  and  _391
REMARK  158  A    between atoms: _391  and  _392
REMARK  159  A    between atoms: _391  and  _394
REMARK  160  A    between atoms: _394  and  _395
REMARK  161  A    between atoms: _398  and  _400
REMARK  162  A    between atoms: _400  and  _401
REMARK  163  A    between atoms: _400  and  _403
REMARK  164  A    between atoms: _403  and  _404
REMARK  165  A    between atoms: _407  and  _409
REMARK  166  A    between atoms: _409  and  _410
REMARK  167  A    between atoms: _413  and  _415
REMARK  168  A    between atoms: _415  and  _416
REMARK  169  A    between atoms: _415  and  _418
REMARK  170  A    between atoms: _418  and  _419
REMARK  171  A    between atoms: _421  and  _423
REMARK  172  A    between atoms: _423  and  _424
REMARK  173  A    between atoms: _423  and  _426
REMARK  174  A    between atoms: _429  and  _431
REMARK  175  A    between atoms: _431  and  _432
REMARK  176  A    between atoms: _431  and  _434
REMARK  177  A    between atoms: _434  and  _435
REMARK  178  A    between atoms: _437  and  _439
REMARK  179  A    between atoms: _439  and  _440
REMARK  180  A    between atoms: _439  and  _442
REMARK  181  A    between atoms: _442  and  _443
REMARK  182  A    between atoms: _449  and  _451
REMARK  183  A    between atoms: _451  and  _452
REMARK  184  A    between atoms: _451  and  _454
REMARK  185  A    between atoms: _454  and  _455
REMARK  186  A    between atoms: _458  and  _460
REMARK  187  A    between atoms: _460  and  _461
REMARK  188  A    between atoms: _460  and  _463
REMARK  189  A    between atoms: _463  and  _464
REMARK  190  A    between atoms: _467  and  _469
REMARK  191  A    between atoms: _469  and  _470
REMARK  192  A    between atoms: _469  and  _472
REMARK  193  A    between atoms: _472  and  _473
REMARK  194  A    between atoms: _479  and  _481
REMARK  195  A    between atoms: _481  and  _482
REMARK  196  A    between atoms: _484  and  _486
REMARK  197  A    between atoms: _486  and  _487
REMARK  198  A    between atoms: _486  and  _489
REMARK  199  A    between atoms: _489  and  _490
REMARK  200  A    between atoms: _490  and  _491
REMARK  201  A    between atoms: _491  and  _492
REMARK  202  A    between atoms: _492  and  _493
REMARK  203  A    between atoms: _497  and  _499
REMARK  204  A    between atoms: _499  and  _500
REMARK  205  A    between atoms: _502  and  _504
REMARK  206  A    between atoms: _504  and  _505
REMARK  207  A    between atoms: _504  and  _507
REMARK  208  A    between atoms: _510  and  _512
REMARK  209  A    between atoms: _512  and  _513
REMARK  210  A    between atoms: _515  and  _517
REMARK  211  A    between atoms: _517  and  _518
REMARK  212  A    between atoms: _517  and  _520
REMARK  213  A    between atoms: _520  and  _521
REMARK                            x       y       z     vdW  Elec       q    Type
REMARK                         _______ _______ _______ _____ _____    ______ ____
ROOT
ATOM      1  CB  PHE A   1       8.336  30.932  -2.590  0.00  0.00    +0.051 C 
ENDROOT
BRANCH   1   2
ATOM      2  CG  PHE A   1       7.281  30.332  -1.707  0.00  0.00    -0.020 A 
ATOM      3  CD2 PHE A   1       7.555  29.220  -0.928  0.00  0.00    -0.004 A 
ATOM      4  CE2 PHE A   1       6.592  28.680  -0.082  0.00  0.00    -0.000 A 
ATOM      5  CZ  PHE A   1       5.334  29.237  -0.016  0.00  0.00    -0.000 A 
ATOM      6  CE1 PHE A   1       5.018  30.308  -0.816  0.00  0.00    -0.000 A 
ATOM      7  CD1 PHE A   1       6.007  30.883  -1.643  0.00  0.00    -0.004 A 
ENDBRANCH   1   2
BRANCH   1   8
ATOM      8  CA  PHE A   1       9.254  31.908  -1.840  0.00  0.00    +0.137 C 
BRANCH   8   9
ATOM      9  N   PHE A   1       8.475  33.035  -1.303  0.00  0.00    -0.239 NA
ATOM     10  H   PHE A   1       7.733  33.467  -1.890  0.00  0.00    +0.142 HD
ENDBRANCH   8   9
BRANCH   8  11
ATOM     11  C   PHE A   1      10.394  32.324  -2.765  0.00  0.00    +0.224 C 
ATOM     12  O   PHE A   1      11.270  31.498  -3.015  0.00  0.00    -0.287 OA
ENDBRANCH   8  11
ENDBRANCH   1   8
TORSDOF 4
REMARK  Name = ../refined-set-2016/4pow/4pow_pocket.pdb
REMARK  213 active torsions:
REMARK  status: ('A' for Active; 'I' for Inactive)
REMARK    1  A    between atoms: _1  and  _3
REMARK    2  A    between atoms: _3  and  _4
REMARK    3  A    between atoms: _3  and  _6
REMARK    4  A    between atoms: _6  and  _7
REMARK    5  A    between atoms: _10  and  _12
REMARK    6  A    between atoms: _12  and  _13
REMARK    7  A    between atoms: _12  and  _15
REMARK    8  A    between atoms: _15  and  _16
REMARK    9  A    between atoms: _16  and  _17
REMARK   10  A    between atoms: _20  and  _22
REMARK   11  A    between atoms: _22  and  _23
REMARK   12  A    between atoms: _25  and  _27
REMARK   13  A    between atoms: _27  and  _28
REMARK   14  A    between atoms: _27  and  _30
REMARK   15  A    between atoms: _30  and  _31
REMARK   16  A    between atoms: _33  and  _35
REMARK   17  A    between atoms: _35  and  _36
REMARK   18  A    between atoms: _35  and  _38
REMARK   19  A    between atoms: _38  and  _39
REMARK   20  A    between atoms: _44  and  _45
REMARK   21  A    between atoms: _47  and  _49
REMARK   22  A    between atoms: _49  and  _50
REMARK   23  A    between atoms: _54  and  _55
REMARK   24  A    between atoms: _60  and  _62
REMARK   25  A    between atoms: _62  and  _63
REMARK   26  A    between atoms: _62  and  _65
REMARK   27  A    between atoms: _65  and  _66
REMARK   28  A    between atoms: _71  and  _72
REMARK   29  A    between atoms: _74  and  _76
REMARK   30  A    between atoms: _76  and  _77
REMARK   31  A    between atoms: _76  and  _79
REMARK   32  A    between atoms: _79  and  _80
REMARK   33  A    between atoms: _85  and  _87
REMARK   34  A    between atoms: _87  and  _88
REMARK   35  A    between atoms: _87  and  _90
REMARK   36  A    between atoms: _90  and  _91
REMARK   37  A    between atoms: _94  and  _96
REMARK   38  A    between atoms: _96  and  _97
REMARK   39  A    between atoms: _96  and  _99
REMARK   40  A    between atoms: _99  and  _100
REMARK   41  A    between atoms: _100  and  _101
REMARK   42  A    between atoms: _106  and  _108
REMARK   43  A    between atoms: _108  and  _109
REMARK   44  A    between atoms: _112  and  _114
REMARK   45  A    between atoms: _114  and  _115
REMARK   46  A    between atoms: _114  and  _117
REMARK   47  A    between atoms: _117  and  _118
REMARK   48  A    between atoms: _128  and  _130
REMARK   49  A    between atoms: _130  and  _131
REMARK   50  A    between atoms: _130  and  _133
REMARK   51  A    between atoms: _133  and  _134
REMARK   52  A    between atoms: _137  and  _139
REMARK   53  A    between atoms: _139  and  _140
REMARK   54  A    between atoms: _139  and  _142
REMARK   55  A    between atoms: _142  and  _143
REMARK   56  A    between atoms: _146  and  _148
REMARK   57  A    between atoms: _148  and  _149
REMARK   58  A    between atoms: _148  and  _151
REMARK   59  A    between atoms: _151  and  _152
REMARK   60  A    between atoms: _152  and  _153
REMARK   61  A    between atoms: _155  and  _157
REMARK   62  A    between atoms: _157  and  _158
REMARK   63  A    between atoms: _161  and  _163
REMARK   64  A    between atoms: _163  and  _164
REMARK   65  A    between atoms: _167  and  _169
REMARK   66  A    between atoms: _169  and  _170
REMARK   67  A    between atoms: _169  and  _172
REMARK   68  A    between atoms: _172  and  _173
REMARK   69  A    between atoms: _173  and  _174
REMARK   70  A    between atoms: _176  and  _178
REMARK   71  A    between atoms: _178  and  _179
REMARK   72  A    between atoms: _181  and  _183
REMARK   73  A    between atoms: _183  and  _184
REMARK   74  A    between atoms: _183  and  _186
REMARK   75  A    between atoms: _186  and  _187
REMARK   76  A    between atoms: _190  and  _192
REMARK   77  A    between atoms: _192  and  _193
REMARK   78  A    between atoms: _192  and  _195
REMARK   79  A    between atoms: _195  and  _196
REMARK   80  A    between atoms: _196  and  _197
REMARK   81  A    between atoms: _202  and  _204
REMARK   82  A    between atoms: _204  and  _205
REMARK   83  A    between atoms: _204  and  _207
REMARK   84  A    between atoms: _207  and  _208
REMARK   85  A    between atoms: _208  and  _209
REMARK   86  A    between atoms: _209  and  _210
REMARK   87  A    between atoms: _219  and  _221
REMARK   88  A    between atoms: _221  and  _222
REMARK   89  A    between atoms: _221  and  _224
REMARK   90  A    between atoms: _224  and  _225
REMARK   91  A    between atoms: _231  and  _233
REMARK   92  A    between atoms: _233  and  _234
REMARK   93  A    between atoms: _233  and  _236
REMARK   94  A    between atoms: _236  and  _237
REMARK   95  A    between atoms: _240  and  _242
REMARK   96  A    between atoms: _242  and  _243
REMARK   97  A    between atoms: _242  and  _245
REMARK   98  A    between atoms: _245  and  _246
REMARK   99  A    between atoms: _249  and  _251
REMARK  100  A    between atoms: _251  and  _252
REMARK  101  A    between atoms: _251  and  _254
REMARK  102  A    between atoms: _254  and  _255
REMARK  103  A    between atoms: _259  and  _260
REMARK  104  A    between atoms: _265  and  _267
REMARK  105  A    between atoms: _267  and  _268
REMARK  106  A    between atoms: _267  and  _270
REMARK  107  A    between atoms: _270  and  _271
REMARK  108  A    between atoms: _271  and  _272
REMARK  109  A    between atoms: _274  and  _276
REMARK  110  A    between atoms: _276  and  _277
REMARK  111  A    between atoms: _276  and  _279
REMARK  112  A    between atoms: _279  and  _280
REMARK  113  A    between atoms: _283  and  _285
REMARK  114  A    between atoms: _285  and  _286
REMARK  115  A    between atoms: _285  and  _288
REMARK  116  A    between atoms: _288  and  _289
REMARK  117  A    between atoms: _289  and  _290
REMARK  118  A    between atoms: _295  and  _297
REMARK  119  A    between atoms: _297  and  _298
REMARK  120  A    between atoms: _301  and  _303
REMARK  121  A    between atoms: _303  and  _304
REMARK  122  A    between atoms: _306  and  _308
REMARK  123  A    between atoms: _308  and  _309
REMARK  124  A    between atoms: _308  and  _311
REMARK  125  A    between atoms: _311  and  _312
REMARK  126  A    between atoms: _315  and  _317
REMARK  127  A    between atoms: _317  and  _318
REMARK  128  A    between atoms: _317  and  _320
REMARK  129  A    between atoms: _320  and  _321
REMARK  130  A    between atoms: _323  and  _325
REMARK  131  A    between atoms: _325  and  _326
REMARK  132  A    between atoms: _325  and  _328
REMARK  133  A    between atoms: _328  and  _329
REMARK  134  A    between atoms: _334  and  _336
REMARK  135  A    between atoms: _336  and  _337
REMARK  136  A    between atoms: _336  and  _339
REMARK  137  A    between atoms: _339  and  _340
REMARK  138  A    between atoms: _340  and  _341
REMARK  139  A    between atoms: _344  and  _346
REMARK  140  A    between atoms: _346  and  _347
REMARK  141  A    between atoms: _350  and  _352
REMARK  142  A    between atoms: _352  and  _353
REMARK  143  A    between atoms: _352  and  _355
REMARK  144  A    between atoms: _355  and  _356
REMARK  145  A    between atoms: _362  and  _364
REMARK  146  A    between atoms: _364  and  _365
REMARK  147  A    between atoms: _364  and  _367
REMARK  148  A    between atoms: _367  and  _368
REMARK  149  A    between atoms: _371  and  _373
REMARK  150  A    between atoms: _373  and  _374
REMARK  151  A    between atoms: _373  and  _376
REMARK  152  A    between atoms: _376  and  _377
REMARK  153  A    between atoms: _380  and  _382
REMARK  154  A    between atoms: _382  and  _383
REMARK  155  A    between atoms: _382  and  _385
REMARK  156  A    between atoms: _385  and  _386
REMARK  157  A    between atoms: _389  and  _391
REMARK  158  A    between atoms: _391  and  _392
REMARK  159  A    between atoms: _391  and  _394
REMARK  160  A    between atoms: _394  and  _395
REMARK  161  A    between atoms: _398  and  _400
REMARK  162  A    between atoms: _400  and  _401
REMARK  163  A    between atoms: _400  and  _403
REMARK  164  A    between atoms: _403  and  _404
REMARK  165  A    between atoms: _407  and  _409
REMARK  166  A    between atoms: _409  and  _410
REMARK  167  A    between atoms: _413  and  _415
REMARK  168  A    between atoms: _415  and  _416
REMARK  169  A    between atoms: _415  and  _418
REMARK  170  A    between atoms: _418  and  _419
REMARK  171  A    between atoms: _421  and  _423
REMARK  172  A    between atoms: _423  and  _424
REMARK  173  A    between atoms: _423  and  _426
REMARK  174  A    between atoms: _429  and  _431
REMARK  175  A    between atoms: _431  and  _432
REMARK  176  A    between atoms: _431  and  _434
REMARK  177  A    between atoms: _434  and  _435
REMARK  178  A    between atoms: _437  and  _439
REMARK  179  A    between atoms: _439  and  _440
REMARK  180  A    between atoms: _439  and  _442
REMARK  181  A    between atoms: _442  and  _443
REMARK  182  A    between atoms: _449  and  _451
REMARK  183  A    between atoms: _451  and  _452
REMARK  184  A    between atoms: _451  and  _454
REMARK  185  A    between atoms: _454  and  _455
REMARK  186  A    between atoms: _458  and  _460
REMARK  187  A    between atoms: _460  and  _461
REMARK  188  A    between atoms: _460  and  _463
REMARK  189  A    between atoms: _463  and  _464
REMARK  190  A    between atoms: _467  and  _469
REMARK  191  A    between atoms: _469  and  _470
REMARK  192  A    between atoms: _469  and  _472
REMARK  193  A    between atoms: _472  and  _473
REMARK  194  A    between atoms: _479  and  _481
REMARK  195  A    between atoms: _481  and  _482
REMARK  196  A    between atoms: _484  and  _486
REMARK  197  A    between atoms: _486  and  _487
REMARK  198  A    between atoms: _486  and  _489
REMARK  199  A    between atoms: _489  and  _490
REMARK  200  A    between atoms: _490  and  _491
REMARK  201  A    between atoms: _491  and  _492
REMARK  202  A    between atoms: _492  and  _493
REMARK  203  A    between atoms: _497  and  _499
REMARK  204  A    between atoms: _499  and  _500
REMARK  205  A    between atoms: _502  and  _504
REMARK  206  A    between atoms: _504  and  _505
REMARK  207  A    between atoms: _504  and  _507
REMARK  208  A    between atoms: _510  and  _512
REMARK  209  A    between atoms: _512  and  _513
REMARK  210  A    between atoms: _515  and  _517
REMARK  211  A    between atoms: _517  and  _518
REMARK  212  A    between atoms: _517  and  _520
REMARK  213  A    between atoms: _520  and  _521
REMARK                            x       y       z     vdW  Elec       q    Type
REMARK                         _______ _______ _______ _____ _____    ______ ____
ROOT
ATOM      1  O   HOH     1       7.223  21.603  10.788  0.00  0.00    +0.000 OA
ENDROOT
TORSDOF 0
REMARK  Name = ../refined-set-2016/4pow/4pow_pocket.pdb
REMARK  213 active torsions:
REMARK  status: ('A' for Active; 'I' for Inactive)
REMARK    1  A    between atoms: _1  and  _3
REMARK    2  A    between atoms: _3  and  _4
REMARK    3  A    between atoms: _3  and  _6
REMARK    4  A    between atoms: _6  and  _7
REMARK    5  A    between atoms: _10  and  _12
REMARK    6  A    between atoms: _12  and  _13
REMARK    7  A    between atoms: _12  and  _15
REMARK    8  A    between atoms: _15  and  _16
REMARK    9  A    between atoms: _16  and  _17
REMARK   10  A    between atoms: _20  and  _22
REMARK   11  A    between atoms: _22  and  _23
REMARK   12  A    between atoms: _25  and  _27
REMARK   13  A    between atoms: _27  and  _28
REMARK   14  A    between atoms: _27  and  _30
REMARK   15  A    between atoms: _30  and  _31
REMARK   16  A    between atoms: _33  and  _35
REMARK   17  A    between atoms: _35  and  _36
REMARK   18  A    between atoms: _35  and  _38
REMARK   19  A    between atoms: _38  and  _39
REMARK   20  A    between atoms: _44  and  _45
REMARK   21  A    between atoms: _47  and  _49
REMARK   22  A    between atoms: _49  and  _50
REMARK   23  A    between atoms: _54  and  _55
REMARK   24  A    between atoms: _60  and  _62
REMARK   25  A    between atoms: _62  and  _63
REMARK   26  A    between atoms: _62  and  _65
REMARK   27  A    between atoms: _65  and  _66
REMARK   28  A    between atoms: _71  and  _72
REMARK   29  A    between atoms: _74  and  _76
REMARK   30  A    between atoms: _76  and  _77
REMARK   31  A    between atoms: _76  and  _79
REMARK   32  A    between atoms: _79  and  _80
REMARK   33  A    between atoms: _85  and  _87
REMARK   34  A    between atoms: _87  and  _88
REMARK   35  A    between atoms: _87  and  _90
REMARK   36  A    between atoms: _90  and  _91
REMARK   37  A    between atoms: _94  and  _96
REMARK   38  A    between atoms: _96  and  _97
REMARK   39  A    between atoms: _96  and  _99
REMARK   40  A    between atoms: _99  and  _100
REMARK   41  A    between atoms: _100  and  _101
REMARK   42  A    between atoms: _106  and  _108
REMARK   43  A    between atoms: _108  and  _109
REMARK   44  A    between atoms: _112  and  _114
REMARK   45  A    between atoms: _114  and  _115
REMARK   46  A    between atoms: _114  and  _117
REMARK   47  A    between atoms: _117  and  _118
REMARK   48  A    between atoms: _128  and  _130
REMARK   49  A    between atoms: _130  and  _131
REMARK   50  A    between atoms: _130  and  _133
REMARK   51  A    between atoms: _133  and  _134
REMARK   52  A    between atoms: _137  and  _139
REMARK   53  A    between atoms: _139  and  _140
REMARK   54  A    between atoms: _139  and  _142
REMARK   55  A    between atoms: _142  and  _143
REMARK   56  A    between atoms: _146  and  _148
REMARK   57  A    between atoms: _148  and  _149
REMARK   58  A    between atoms: _148  and  _151
REMARK   59  A    between atoms: _151  and  _152
REMARK   60  A    between atoms: _152  and  _153
REMARK   61  A    between atoms: _155  and  _157
REMARK   62  A    between atoms: _157  and  _158
REMARK   63  A    between atoms: _161  and  _163
REMARK   64  A    between atoms: _163  and  _164
REMARK   65  A    between atoms: _167  and  _169
REMARK   66  A    between atoms: _169  and  _170
REMARK   67  A    between atoms: _169  and  _172
REMARK   68  A    between atoms: _172  and  _173
REMARK   69  A    between atoms: _173  and  _174
REMARK   70  A    between atoms: _176  and  _178
REMARK   71  A    between atoms: _178  and  _179
REMARK   72  A    between atoms: _181  and  _183
REMARK   73  A    between atoms: _183  and  _184
REMARK   74  A    between atoms: _183  and  _186
REMARK   75  A    between atoms: _186  and  _187
REMARK   76  A    between atoms: _190  and  _192
REMARK   77  A    between atoms: _192  and  _193
REMARK   78  A    between atoms: _192  and  _195
REMARK   79  A    between atoms: _195  and  _196
REMARK   80  A    between atoms: _196  and  _197
REMARK   81  A    between atoms: _202  and  _204
REMARK   82  A    between atoms: _204  and  _205
REMARK   83  A    between atoms: _204  and  _207
REMARK   84  A    between atoms: _207  and  _208
REMARK   85  A    between atoms: _208  and  _209
REMARK   86  A    between atoms: _209  and  _210
REMARK   87  A    between atoms: _219  and  _221
REMARK   88  A    between atoms: _221  and  _222
REMARK   89  A    between atoms: _221  and  _224
REMARK   90  A    between atoms: _224  and  _225
REMARK   91  A    between atoms: _231  and  _233
REMARK   92  A    between atoms: _233  and  _234
REMARK   93  A    between atoms: _233  and  _236
REMARK   94  A    between atoms: _236  and  _237
REMARK   95  A    between atoms: _240  and  _242
REMARK   96  A    between atoms: _242  and  _243
REMARK   97  A    between atoms: _242  and  _245
REMARK   98  A    between atoms: _245  and  _246
REMARK   99  A    between atoms: _249  and  _251
REMARK  100  A    between atoms: _251  and  _252
REMARK  101  A    between atoms: _251  and  _254
REMARK  102  A    between atoms: _254  and  _255
REMARK  103  A    between atoms: _259  and  _260
REMARK  104  A    between atoms: _265  and  _267
REMARK  105  A    between atoms: _267  and  _268
REMARK  106  A    between atoms: _267  and  _270
REMARK  107  A    between atoms: _270  and  _271
REMARK  108  A    between atoms: _271  and  _272
REMARK  109  A    between atoms: _274  and  _276
REMARK  110  A    between atoms: _276  and  _277
REMARK  111  A    between atoms: _276  and  _279
REMARK  112  A    between atoms: _279  and  _280
REMARK  113  A    between atoms: _283  and  _285
REMARK  114  A    between atoms: _285  and  _286
REMARK  115  A    between atoms: _285  and  _288
REMARK  116  A    between atoms: _288  and  _289
REMARK  117  A    between atoms: _289  and  _290
REMARK  118  A    between atoms: _295  and  _297
REMARK  119  A    between atoms: _297  and  _298
REMARK  120  A    between atoms: _301  and  _303
REMARK  121  A    between atoms: _303  and  _304
REMARK  122  A    between atoms: _306  and  _308
REMARK  123  A    between atoms: _308  and  _309
REMARK  124  A    between atoms: _308  and  _311
REMARK  125  A    between atoms: _311  and  _312
REMARK  126  A    between atoms: _315  and  _317
REMARK  127  A    between atoms: _317  and  _318
REMARK  128  A    between atoms: _317  and  _320
REMARK  129  A    between atoms: _320  and  _321
REMARK  130  A    between atoms: _323  and  _325
REMARK  131  A    between atoms: _325  and  _326
REMARK  132  A    between atoms: _325  and  _328
REMARK  133  A    between atoms: _328  and  _329
REMARK  134  A    between atoms: _334  and  _336
REMARK  135  A    between atoms: _336  and  _337
REMARK  136  A    between atoms: _336  and  _339
REMARK  137  A    between atoms: _339  and  _340
REMARK  138  A    between atoms: _340  and  _341
REMARK  139  A    between atoms: _344  and  _346
REMARK  140  A    between atoms: _346  and  _347
REMARK  141  A    between atoms: _350  and  _352
REMARK  142  A    between atoms: _352  and  _353
REMARK  143  A    between atoms: _352  and  _355
REMARK  144  A    between atoms: _355  and  _356
REMARK  145  A    between atoms: _362  and  _364
REMARK  146  A    between atoms: _364  and  _365
REMARK  147  A    between atoms: _364  and  _367
REMARK  148  A    between atoms: _367  and  _368
REMARK  149  A    between atoms: _371  and  _373
REMARK  150  A    between atoms: _373  and  _374
REMARK  151  A    between atoms: _373  and  _376
REMARK  152  A    between atoms: _376  and  _377
REMARK  153  A    between atoms: _380  and  _382
REMARK  154  A    between atoms: _382  and  _383
REMARK  155  A    between atoms: _382  and  _385
REMARK  156  A    between atoms: _385  and  _386
REMARK  157  A    between atoms: _389  and  _391
REMARK  158  A    between atoms: _391  and  _392
REMARK  159  A    between atoms: _391  and  _394
REMARK  160  A    between atoms: _394  and  _395
REMARK  161  A    between atoms: _398  and  _400
REMARK  162  A    between atoms: _400  and  _401
REMARK  163  A    between atoms: _400  and  _403
REMARK  164  A    between atoms: _403  and  _404
REMARK  165  A    between atoms: _407  and  _409
REMARK  166  A    between atoms: _409  and  _410
REMARK  167  A    between atoms: _413  and  _415
REMARK  168  A    between atoms: _415  and  _416
REMARK  169  A    between atoms: _415  and  _418
REMARK  170  A    between atoms: _418  and  _419
REMARK  171  A    between atoms: _421  and  _423
REMARK  172  A    between atoms: _423  and  _424
REMARK  173  A    between atoms: _423  and  _426
REMARK  174  A    between atoms: _429  and  _431
REMARK  175  A    between atoms: _431  and  _432
REMARK  176  A    between atoms: _431  and  _434
REMARK  177  A    between atoms: _434  and  _435
REMARK  178  A    between atoms: _437  and  _439
REMARK  179  A    between atoms: _439  and  _440
REMARK  180  A    between atoms: _439  and  _442
REMARK  181  A    between atoms: _442  and  _443
REMARK  182  A    between atoms: _449  and  _451
REMARK  183  A    between atoms: _451  and  _452
REMARK  184  A    between atoms: _451  and  _454
REMARK  185  A    between atoms: _454  and  _455
REMARK  186  A    between atoms: _458  and  _460
REMARK  187  A    between atoms: _460  and  _461
REMARK  188  A    between atoms: _460  and  _463
REMARK  189  A    between atoms: _463  and  _464
REMARK  190  A    between atoms: _467  and  _469
REMARK  191  A    between atoms: _469  and  _470
REMARK  192  A    between atoms: _469  and  _472
REMARK  193  A    between atoms: _472  and  _473
REMARK  194  A    between atoms: _479  and  _481
REMARK  195  A    between atoms: _481  and  _482
REMARK  196  A    between atoms: _484  and  _486
REMARK  197  A    between atoms: _486  and  _487
REMARK  198  A    between atoms: _486  and  _489
REMARK  199  A    between atoms: _489  and  _490
REMARK  200  A    between atoms: _490  and  _491
REMARK  201  A    between atoms: _491  and  _492
REMARK  202  A    between atoms: _492  and  _493
REMARK  203  A    between atoms: _497  and  _499
REMARK  204  A    between atoms: _499  and  _500
REMARK  205  A    between atoms: _502  and  _504
REMARK  206  A    between atoms: _504  and  _505
REMARK  207  A    between atoms: _504  and  _507
REMARK  208  A    between atoms: _510  and  _512
REMARK  209  A    between atoms: _512  and  _513
REMARK  210  A    between atoms: _515  and  _517
REMARK  211  A    between atoms: _517  and  _518
REMARK  212  A    between atoms: _517  and  _520
REMARK  213  A    between atoms: _520  and  _521
REMARK                            x       y       z     vdW  Elec       q    Type
REMARK                         _______ _______ _______ _____ _____    ______ ____
ROOT
ATOM      1  O   HOH     1      10.208  15.953   5.690  0.00  0.00    +0.000 OA
ENDROOT
TORSDOF 0
REMARK  Name = ../refined-set-2016/4pow/4pow_pocket.pdb
REMARK  213 active torsions:
REMARK  status: ('A' for Active; 'I' for Inactive)
REMARK    1  A    between atoms: _1  and  _3
REMARK    2  A    between atoms: _3  and  _4
REMARK    3  A    between atoms: _3  and  _6
REMARK    4  A    between atoms: _6  and  _7
REMARK    5  A    between atoms: _10  and  _12
REMARK    6  A    between atoms: _12  and  _13
REMARK    7  A    between atoms: _12  and  _15
REMARK    8  A    between atoms: _15  and  _16
REMARK    9  A    between atoms: _16  and  _17
REMARK   10  A    between atoms: _20  and  _22
REMARK   11  A    between atoms: _22  and  _23
REMARK   12  A    between atoms: _25  and  _27
REMARK   13  A    between atoms: _27  and  _28
REMARK   14  A    between atoms: _27  and  _30
REMARK   15  A    between atoms: _30  and  _31
REMARK   16  A    between atoms: _33  and  _35
REMARK   17  A    between atoms: _35  and  _36
REMARK   18  A    between atoms: _35  and  _38
REMARK   19  A    between atoms: _38  and  _39
REMARK   20  A    between atoms: _44  and  _45
REMARK   21  A    between atoms: _47  and  _49
REMARK   22  A    between atoms: _49  and  _50
REMARK   23  A    between atoms: _54  and  _55
REMARK   24  A    between atoms: _60  and  _62
REMARK   25  A    between atoms: _62  and  _63
REMARK   26  A    between atoms: _62  and  _65
REMARK   27  A    between atoms: _65  and  _66
REMARK   28  A    between atoms: _71  and  _72
REMARK   29  A    between atoms: _74  and  _76
REMARK   30  A    between atoms: _76  and  _77
REMARK   31  A    between atoms: _76  and  _79
REMARK   32  A    between atoms: _79  and  _80
REMARK   33  A    between atoms: _85  and  _87
REMARK   34  A    between atoms: _87  and  _88
REMARK   35  A    between atoms: _87  and  _90
REMARK   36  A    between atoms: _90  and  _91
REMARK   37  A    between atoms: _94  and  _96
REMARK   38  A    between atoms: _96  and  _97
REMARK   39  A    between atoms: _96  and  _99
REMARK   40  A    between atoms: _99  and  _100
REMARK   41  A    between atoms: _100  and  _101
REMARK   42  A    between atoms: _106  and  _108
REMARK   43  A    between atoms: _108  and  _109
REMARK   44  A    between atoms: _112  and  _114
REMARK   45  A    between atoms: _114  and  _115
REMARK   46  A    between atoms: _114  and  _117
REMARK   47  A    between atoms: _117  and  _118
REMARK   48  A    between atoms: _128  and  _130
REMARK   49  A    between atoms: _130  and  _131
REMARK   50  A    between atoms: _130  and  _133
REMARK   51  A    between atoms: _133  and  _134
REMARK   52  A    between atoms: _137  and  _139
REMARK   53  A    between atoms: _139  and  _140
REMARK   54  A    between atoms: _139  and  _142
REMARK   55  A    between atoms: _142  and  _143
REMARK   56  A    between atoms: _146  and  _148
REMARK   57  A    between atoms: _148  and  _149
REMARK   58  A    between atoms: _148  and  _151
REMARK   59  A    between atoms: _151  and  _152
REMARK   60  A    between atoms: _152  and  _153
REMARK   61  A    between atoms: _155  and  _157
REMARK   62  A    between atoms: _157  and  _158
REMARK   63  A    between atoms: _161  and  _163
REMARK   64  A    between atoms: _163  and  _164
REMARK   65  A    between atoms: _167  and  _169
REMARK   66  A    between atoms: _169  and  _170
REMARK   67  A    between atoms: _169  and  _172
REMARK   68  A    between atoms: _172  and  _173
REMARK   69  A    between atoms: _173  and  _174
REMARK   70  A    between atoms: _176  and  _178
REMARK   71  A    between atoms: _178  and  _179
REMARK   72  A    between atoms: _181  and  _183
REMARK   73  A    between atoms: _183  and  _184
REMARK   74  A    between atoms: _183  and  _186
REMARK   75  A    between atoms: _186  and  _187
REMARK   76  A    between atoms: _190  and  _192
REMARK   77  A    between atoms: _192  and  _193
REMARK   78  A    between atoms: _192  and  _195
REMARK   79  A    between atoms: _195  and  _196
REMARK   80  A    between atoms: _196  and  _197
REMARK   81  A    between atoms: _202  and  _204
REMARK   82  A    between atoms: _204  and  _205
REMARK   83  A    between atoms: _204  and  _207
REMARK   84  A    between atoms: _207  and  _208
REMARK   85  A    between atoms: _208  and  _209
REMARK   86  A    between atoms: _209  and  _210
REMARK   87  A    between atoms: _219  and  _221
REMARK   88  A    between atoms: _221  and  _222
REMARK   89  A    between atoms: _221  and  _224
REMARK   90  A    between atoms: _224  and  _225
REMARK   91  A    between atoms: _231  and  _233
REMARK   92  A    between atoms: _233  and  _234
REMARK   93  A    between atoms: _233  and  _236
REMARK   94  A    between atoms: _236  and  _237
REMARK   95  A    between atoms: _240  and  _242
REMARK   96  A    between atoms: _242  and  _243
REMARK   97  A    between atoms: _242  and  _245
REMARK   98  A    between atoms: _245  and  _246
REMARK   99  A    between atoms: _249  and  _251
REMARK  100  A    between atoms: _251  and  _252
REMARK  101  A    between atoms: _251  and  _254
REMARK  102  A    between atoms: _254  and  _255
REMARK  103  A    between atoms: _259  and  _260
REMARK  104  A    between atoms: _265  and  _267
REMARK  105  A    between atoms: _267  and  _268
REMARK  106  A    between atoms: _267  and  _270
REMARK  107  A    between atoms: _270  and  _271
REMARK  108  A    between atoms: _271  and  _272
REMARK  109  A    between atoms: _274  and  _276
REMARK  110  A    between atoms: _276  and  _277
REMARK  111  A    between atoms: _276  and  _279
REMARK  112  A    between atoms: _279  and  _280
REMARK  113  A    between atoms: _283  and  _285
REMARK  114  A    between atoms: _285  and  _286
REMARK  115  A    between atoms: _285  and  _288
REMARK  116  A    between atoms: _288  and  _289
REMARK  117  A    between atoms: _289  and  _290
REMARK  118  A    between atoms: _295  and  _297
REMARK  119  A    between atoms: _297  and  _298
REMARK  120  A    between atoms: _301  and  _303
REMARK  121  A    between atoms: _303  and  _304
REMARK  122  A    between atoms: _306  and  _308
REMARK  123  A    between atoms: _308  and  _309
REMARK  124  A    between atoms: _308  and  _311
REMARK  125  A    between atoms: _311  and  _312
REMARK  126  A    between atoms: _315  and  _317
REMARK  127  A    between atoms: _317  and  _318
REMARK  128  A    between atoms: _317  and  _320
REMARK  129  A    between atoms: _320  and  _321
REMARK  130  A    between atoms: _323  and  _325
REMARK  131  A    between atoms: _325  and  _326
REMARK  132  A    between atoms: _325  and  _328
REMARK  133  A    between atoms: _328  and  _329
REMARK  134  A    between atoms: _334  and  _336
REMARK  135  A    between atoms: _336  and  _337
REMARK  136  A    between atoms: _336  and  _339
REMARK  137  A    between atoms: _339  and  _340
REMARK  138  A    between atoms: _340  and  _341
REMARK  139  A    between atoms: _344  and  _346
REMARK  140  A    between atoms: _346  and  _347
REMARK  141  A    between atoms: _350  and  _352
REMARK  142  A    between atoms: _352  and  _353
REMARK  143  A    between atoms: _352  and  _355
REMARK  144  A    between atoms: _355  and  _356
REMARK  145  A    between atoms: _362  and  _364
REMARK  146  A    between atoms: _364  and  _365
REMARK  147  A    between atoms: _364  and  _367
REMARK  148  A    between atoms: _367  and  _368
REMARK  149  A    between atoms: _371  and  _373
REMARK  150  A    between atoms: _373  and  _374
REMARK  151  A    between atoms: _373  and  _376
REMARK  152  A    between atoms: _376  and  _377
REMARK  153  A    between atoms: _380  and  _382
REMARK  154  A    between atoms: _382  and  _383
REMARK  155  A    between atoms: _382  and  _385
REMARK  156  A    between atoms: _385  and  _386
REMARK  157  A    between atoms: _389  and  _391
REMARK  158  A    between atoms: _391  and  _392
REMARK  159  A    between atoms: _391  and  _394
REMARK  160  A    between atoms: _394  and  _395
REMARK  161  A    between atoms: _398  and  _400
REMARK  162  A    between atoms: _400  and  _401
REMARK  163  A    between atoms: _400  and  _403
REMARK  164  A    between atoms: _403  and  _404
REMARK  165  A    between atoms: _407  and  _409
REMARK  166  A    between atoms: _409  and  _410
REMARK  167  A    between atoms: _413  and  _415
REMARK  168  A    between atoms: _415  and  _416
REMARK  169  A    between atoms: _415  and  _418
REMARK  170  A    between atoms: _418  and  _419
REMARK  171  A    between atoms: _421  and  _423
REMARK  172  A    between atoms: _423  and  _424
REMARK  173  A    between atoms: _423  and  _426
REMARK  174  A    between atoms: _429  and  _431
REMARK  175  A    between atoms: _431  and  _432
REMARK  176  A    between atoms: _431  and  _434
REMARK  177  A    between atoms: _434  and  _435
REMARK  178  A    between atoms: _437  and  _439
REMARK  179  A    between atoms: _439  and  _440
REMARK  180  A    between atoms: _439  and  _442
REMARK  181  A    between atoms: _442  and  _443
REMARK  182  A    between atoms: _449  and  _451
REMARK  183  A    between atoms: _451  and  _452
REMARK  184  A    between atoms: _451  and  _454
REMARK  185  A    between atoms: _454  and  _455
REMARK  186  A    between atoms: _458  and  _460
REMARK  187  A    between atoms: _460  and  _461
REMARK  188  A    between atoms: _460  and  _463
REMARK  189  A    between atoms: _463  and  _464
REMARK  190  A    between atoms: _467  and  _469
REMARK  191  A    between atoms: _469  and  _470
REMARK  192  A    between atoms: _469  and  _472
REMARK  193  A    between atoms: _472  and  _473
REMARK  194  A    between atoms: _479  and  _481
REMARK  195  A    between atoms: _481  and  _482
REMARK  196  A    between atoms: _484  and  _486
REMARK  197  A    between atoms: _486  and  _487
REMARK  198  A    between atoms: _486  and  _489
REMARK  199  A    between atoms: _489  and  _490
REMARK  200  A    between atoms: _490  and  _491
REMARK  201  A    between atoms: _491  and  _492
REMARK  202  A    between atoms: _492  and  _493
REMARK  203  A    between atoms: _497  and  _499
REMARK  204  A    between atoms: _499  and  _500
REMARK  205  A    between atoms: _502  and  _504
REMARK  206  A    between atoms: _504  and  _505
REMARK  207  A    between atoms: _504  and  _507
REMARK  208  A    between atoms: _510  and  _512
REMARK  209  A    between atoms: _512  and  _513
REMARK  210  A    between atoms: _515  and  _517
REMARK  211  A    between atoms: _517  and  _518
REMARK  212  A    between atoms: _517  and  _520
REMARK  213  A    between atoms: _520  and  _521
REMARK                            x       y       z     vdW  Elec       q    Type
REMARK                         _______ _______ _______ _____ _____    ______ ____
ROOT
ATOM      1  O   HOH     1      -2.742  24.669   3.753  0.00  0.00    +0.000 OA
ENDROOT
TORSDOF 0
REMARK  Name = ../refined-set-2016/4pow/4pow_pocket.pdb
REMARK  213 active torsions:
REMARK  status: ('A' for Active; 'I' for Inactive)
REMARK    1  A    between atoms: _1  and  _3
REMARK    2  A    between atoms: _3  and  _4
REMARK    3  A    between atoms: _3  and  _6
REMARK    4  A    between atoms: _6  and  _7
REMARK    5  A    between atoms: _10  and  _12
REMARK    6  A    between atoms: _12  and  _13
REMARK    7  A    between atoms: _12  and  _15
REMARK    8  A    between atoms: _15  and  _16
REMARK    9  A    between atoms: _16  and  _17
REMARK   10  A    between atoms: _20  and  _22
REMARK   11  A    between atoms: _22  and  _23
REMARK   12  A    between atoms: _25  and  _27
REMARK   13  A    between atoms: _27  and  _28
REMARK   14  A    between atoms: _27  and  _30
REMARK   15  A    between atoms: _30  and  _31
REMARK   16  A    between atoms: _33  and  _35
REMARK   17  A    between atoms: _35  and  _36
REMARK   18  A    between atoms: _35  and  _38
REMARK   19  A    between atoms: _38  and  _39
REMARK   20  A    between atoms: _44  and  _45
REMARK   21  A    between atoms: _47  and  _49
REMARK   22  A    between atoms: _49  and  _50
REMARK   23  A    between atoms: _54  and  _55
REMARK   24  A    between atoms: _60  and  _62
REMARK   25  A    between atoms: _62  and  _63
REMARK   26  A    between atoms: _62  and  _65
REMARK   27  A    between atoms: _65  and  _66
REMARK   28  A    between atoms: _71  and  _72
REMARK   29  A    between atoms: _74  and  _76
REMARK   30  A    between atoms: _76  and  _77
REMARK   31  A    between atoms: _76  and  _79
REMARK   32  A    between atoms: _79  and  _80
REMARK   33  A    between atoms: _85  and  _87
REMARK   34  A    between atoms: _87  and  _88
REMARK   35  A    between atoms: _87  and  _90
REMARK   36  A    between atoms: _90  and  _91
REMARK   37  A    between atoms: _94  and  _96
REMARK   38  A    between atoms: _96  and  _97
REMARK   39  A    between atoms: _96  and  _99
REMARK   40  A    between atoms: _99  and  _100
REMARK   41  A    between atoms: _100  and  _101
REMARK   42  A    between atoms: _106  and  _108
REMARK   43  A    between atoms: _108  and  _109
REMARK   44  A    between atoms: _112  and  _114
REMARK   45  A    between atoms: _114  and  _115
REMARK   46  A    between atoms: _114  and  _117
REMARK   47  A    between atoms: _117  and  _118
REMARK   48  A    between atoms: _128  and  _130
REMARK   49  A    between atoms: _130  and  _131
REMARK   50  A    between atoms: _130  and  _133
REMARK   51  A    between atoms: _133  and  _134
REMARK   52  A    between atoms: _137  and  _139
REMARK   53  A    between atoms: _139  and  _140
REMARK   54  A    between atoms: _139  and  _142
REMARK   55  A    between atoms: _142  and  _143
REMARK   56  A    between atoms: _146  and  _148
REMARK   57  A    between atoms: _148  and  _149
REMARK   58  A    between atoms: _148  and  _151
REMARK   59  A    between atoms: _151  and  _152
REMARK   60  A    between atoms: _152  and  _153
REMARK   61  A    between atoms: _155  and  _157
REMARK   62  A    between atoms: _157  and  _158
REMARK   63  A    between atoms: _161  and  _163
REMARK   64  A    between atoms: _163  and  _164
REMARK   65  A    between atoms: _167  and  _169
REMARK   66  A    between atoms: _169  and  _170
REMARK   67  A    between atoms: _169  and  _172
REMARK   68  A    between atoms: _172  and  _173
REMARK   69  A    between atoms: _173  and  _174
REMARK   70  A    between atoms: _176  and  _178
REMARK   71  A    between atoms: _178  and  _179
REMARK   72  A    between atoms: _181  and  _183
REMARK   73  A    between atoms: _183  and  _184
REMARK   74  A    between atoms: _183  and  _186
REMARK   75  A    between atoms: _186  and  _187
REMARK   76  A    between atoms: _190  and  _192
REMARK   77  A    between atoms: _192  and  _193
REMARK   78  A    between atoms: _192  and  _195
REMARK   79  A    between atoms: _195  and  _196
REMARK   80  A    between atoms: _196  and  _197
REMARK   81  A    between atoms: _202  and  _204
REMARK   82  A    between atoms: _204  and  _205
REMARK   83  A    between atoms: _204  and  _207
REMARK   84  A    between atoms: _207  and  _208
REMARK   85  A    between atoms: _208  and  _209
REMARK   86  A    between atoms: _209  and  _210
REMARK   87  A    between atoms: _219  and  _221
REMARK   88  A    between atoms: _221  and  _222
REMARK   89  A    between atoms: _221  and  _224
REMARK   90  A    between atoms: _224  and  _225
REMARK   91  A    between atoms: _231  and  _233
REMARK   92  A    between atoms: _233  and  _234
REMARK   93  A    between atoms: _233  and  _236
REMARK   94  A    between atoms: _236  and  _237
REMARK   95  A    between atoms: _240  and  _242
REMARK   96  A    between atoms: _242  and  _243
REMARK   97  A    between atoms: _242  and  _245
REMARK   98  A    between atoms: _245  and  _246
REMARK   99  A    between atoms: _249  and  _251
REMARK  100  A    between atoms: _251  and  _252
REMARK  101  A    between atoms: _251  and  _254
REMARK  102  A    between atoms: _254  and  _255
REMARK  103  A    between atoms: _259  and  _260
REMARK  104  A    between atoms: _265  and  _267
REMARK  105  A    between atoms: _267  and  _268
REMARK  106  A    between atoms: _267  and  _270
REMARK  107  A    between atoms: _270  and  _271
REMARK  108  A    between atoms: _271  and  _272
REMARK  109  A    between atoms: _274  and  _276
REMARK  110  A    between atoms: _276  and  _277
REMARK  111  A    between atoms: _276  and  _279
REMARK  112  A    between atoms: _279  and  _280
REMARK  113  A    between atoms: _283  and  _285
REMARK  114  A    between atoms: _285  and  _286
REMARK  115  A    between atoms: _285  and  _288
REMARK  116  A    between atoms: _288  and  _289
REMARK  117  A    between atoms: _289  and  _290
REMARK  118  A    between atoms: _295  and  _297
REMARK  119  A    between atoms: _297  and  _298
REMARK  120  A    between atoms: _301  and  _303
REMARK  121  A    between atoms: _303  and  _304
REMARK  122  A    between atoms: _306  and  _308
REMARK  123  A    between atoms: _308  and  _309
REMARK  124  A    between atoms: _308  and  _311
REMARK  125  A    between atoms: _311  and  _312
REMARK  126  A    between atoms: _315  and  _317
REMARK  127  A    between atoms: _317  and  _318
REMARK  128  A    between atoms: _317  and  _320
REMARK  129  A    between atoms: _320  and  _321
REMARK  130  A    between atoms: _323  and  _325
REMARK  131  A    between atoms: _325  and  _326
REMARK  132  A    between atoms: _325  and  _328
REMARK  133  A    between atoms: _328  and  _329
REMARK  134  A    between atoms: _334  and  _336
REMARK  135  A    between atoms: _336  and  _337
REMARK  136  A    between atoms: _336  and  _339
REMARK  137  A    between atoms: _339  and  _340
REMARK  138  A    between atoms: _340  and  _341
REMARK  139  A    between atoms: _344  and  _346
REMARK  140  A    between atoms: _346  and  _347
REMARK  141  A    between atoms: _350  and  _352
REMARK  142  A    between atoms: _352  and  _353
REMARK  143  A    between atoms: _352  and  _355
REMARK  144  A    between atoms: _355  and  _356
REMARK  145  A    between atoms: _362  and  _364
REMARK  146  A    between atoms: _364  and  _365
REMARK  147  A    between atoms: _364  and  _367
REMARK  148  A    between atoms: _367  and  _368
REMARK  149  A    between atoms: _371  and  _373
REMARK  150  A    between atoms: _373  and  _374
REMARK  151  A    between atoms: _373  and  _376
REMARK  152  A    between atoms: _376  and  _377
REMARK  153  A    between atoms: _380  and  _382
REMARK  154  A    between atoms: _382  and  _383
REMARK  155  A    between atoms: _382  and  _385
REMARK  156  A    between atoms: _385  and  _386
REMARK  157  A    between atoms: _389  and  _391
REMARK  158  A    between atoms: _391  and  _392
REMARK  159  A    between atoms: _391  and  _394
REMARK  160  A    between atoms: _394  and  _395
REMARK  161  A    between atoms: _398  and  _400
REMARK  162  A    between atoms: _400  and  _401
REMARK  163  A    between atoms: _400  and  _403
REMARK  164  A    between atoms: _403  and  _404
REMARK  165  A    between atoms: _407  and  _409
REMARK  166  A    between atoms: _409  and  _410
REMARK  167  A    between atoms: _413  and  _415
REMARK  168  A    between atoms: _415  and  _416
REMARK  169  A    between atoms: _415  and  _418
REMARK  170  A    between atoms: _418  and  _419
REMARK  171  A    between atoms: _421  and  _423
REMARK  172  A    between atoms: _423  and  _424
REMARK  173  A    between atoms: _423  and  _426
REMARK  174  A    between atoms: _429  and  _431
REMARK  175  A    between atoms: _431  and  _432
REMARK  176  A    between atoms: _431  and  _434
REMARK  177  A    between atoms: _434  and  _435
REMARK  178  A    between atoms: _437  and  _439
REMARK  179  A    between atoms: _439  and  _440
REMARK  180  A    between atoms: _439  and  _442
REMARK  181  A    between atoms: _442  and  _443
REMARK  182  A    between atoms: _449  and  _451
REMARK  183  A    between atoms: _451  and  _452
REMARK  184  A    between atoms: _451  and  _454
REMARK  185  A    between atoms: _454  and  _455
REMARK  186  A    between atoms: _458  and  _460
REMARK  187  A    between atoms: _460  and  _461
REMARK  188  A    between atoms: _460  and  _463
REMARK  189  A    between atoms: _463  and  _464
REMARK  190  A    between atoms: _467  and  _469
REMARK  191  A    between atoms: _469  and  _470
REMARK  192  A    between atoms: _469  and  _472
REMARK  193  A    between atoms: _472  and  _473
REMARK  194  A    between atoms: _479  and  _481
REMARK  195  A    between atoms: _481  and  _482
REMARK  196  A    between atoms: _484  and  _486
REMARK  197  A    between atoms: _486  and  _487
REMARK  198  A    between atoms: _486  and  _489
REMARK  199  A    between atoms: _489  and  _490
REMARK  200  A    between atoms: _490  and  _491
REMARK  201  A    between atoms: _491  and  _492
REMARK  202  A    between atoms: _492  and  _493
REMARK  203  A    between atoms: _497  and  _499
REMARK  204  A    between atoms: _499  and  _500
REMARK  205  A    between atoms: _502  and  _504
REMARK  206  A    between atoms: _504  and  _505
REMARK  207  A    between atoms: _504  and  _507
REMARK  208  A    between atoms: _510  and  _512
REMARK  209  A    between atoms: _512  and  _513
REMARK  210  A    between atoms: _515  and  _517
REMARK  211  A    between atoms: _517  and  _518
REMARK  212  A    between atoms: _517  and  _520
REMARK  213  A    between atoms: _520  and  _521
REMARK                            x       y       z     vdW  Elec       q    Type
REMARK                         _______ _______ _______ _____ _____    ______ ____
ROOT
ATOM      1  O   HOH     1       1.788  16.855  -6.660  0.00  0.00    +0.000 OA
ENDROOT
TORSDOF 0
REMARK  Name = ../refined-set-2016/4pow/4pow_pocket.pdb
REMARK  213 active torsions:
REMARK  status: ('A' for Active; 'I' for Inactive)
REMARK    1  A    between atoms: _1  and  _3
REMARK    2  A    between atoms: _3  and  _4
REMARK    3  A    between atoms: _3  and  _6
REMARK    4  A    between atoms: _6  and  _7
REMARK    5  A    between atoms: _10  and  _12
REMARK    6  A    between atoms: _12  and  _13
REMARK    7  A    between atoms: _12  and  _15
REMARK    8  A    between atoms: _15  and  _16
REMARK    9  A    between atoms: _16  and  _17
REMARK   10  A    between atoms: _20  and  _22
REMARK   11  A    between atoms: _22  and  _23
REMARK   12  A    between atoms: _25  and  _27
REMARK   13  A    between atoms: _27  and  _28
REMARK   14  A    between atoms: _27  and  _30
REMARK   15  A    between atoms: _30  and  _31
REMARK   16  A    between atoms: _33  and  _35
REMARK   17  A    between atoms: _35  and  _36
REMARK   18  A    between atoms: _35  and  _38
REMARK   19  A    between atoms: _38  and  _39
REMARK   20  A    between atoms: _44  and  _45
REMARK   21  A    between atoms: _47  and  _49
REMARK   22  A    between atoms: _49  and  _50
REMARK   23  A    between atoms: _54  and  _55
REMARK   24  A    between atoms: _60  and  _62
REMARK   25  A    between atoms: _62  and  _63
REMARK   26  A    between atoms: _62  and  _65
REMARK   27  A    between atoms: _65  and  _66
REMARK   28  A    between atoms: _71  and  _72
REMARK   29  A    between atoms: _74  and  _76
REMARK   30  A    between atoms: _76  and  _77
REMARK   31  A    between atoms: _76  and  _79
REMARK   32  A    between atoms: _79  and  _80
REMARK   33  A    between atoms: _85  and  _87
REMARK   34  A    between atoms: _87  and  _88
REMARK   35  A    between atoms: _87  and  _90
REMARK   36  A    between atoms: _90  and  _91
REMARK   37  A    between atoms: _94  and  _96
REMARK   38  A    between atoms: _96  and  _97
REMARK   39  A    between atoms: _96  and  _99
REMARK   40  A    between atoms: _99  and  _100
REMARK   41  A    between atoms: _100  and  _101
REMARK   42  A    between atoms: _106  and  _108
REMARK   43  A    between atoms: _108  and  _109
REMARK   44  A    between atoms: _112  and  _114
REMARK   45  A    between atoms: _114  and  _115
REMARK   46  A    between atoms: _114  and  _117
REMARK   47  A    between atoms: _117  and  _118
REMARK   48  A    between atoms: _128  and  _130
REMARK   49  A    between atoms: _130  and  _131
REMARK   50  A    between atoms: _130  and  _133
REMARK   51  A    between atoms: _133  and  _134
REMARK   52  A    between atoms: _137  and  _139
REMARK   53  A    between atoms: _139  and  _140
REMARK   54  A    between atoms: _139  and  _142
REMARK   55  A    between atoms: _142  and  _143
REMARK   56  A    between atoms: _146  and  _148
REMARK   57  A    between atoms: _148  and  _149
REMARK   58  A    between atoms: _148  and  _151
REMARK   59  A    between atoms: _151  and  _152
REMARK   60  A    between atoms: _152  and  _153
REMARK   61  A    between atoms: _155  and  _157
REMARK   62  A    between atoms: _157  and  _158
REMARK   63  A    between atoms: _161  and  _163
REMARK   64  A    between atoms: _163  and  _164
REMARK   65  A    between atoms: _167  and  _169
REMARK   66  A    between atoms: _169  and  _170
REMARK   67  A    between atoms: _169  and  _172
REMARK   68  A    between atoms: _172  and  _173
REMARK   69  A    between atoms: _173  and  _174
REMARK   70  A    between atoms: _176  and  _178
REMARK   71  A    between atoms: _178  and  _179
REMARK   72  A    between atoms: _181  and  _183
REMARK   73  A    between atoms: _183  and  _184
REMARK   74  A    between atoms: _183  and  _186
REMARK   75  A    between atoms: _186  and  _187
REMARK   76  A    between atoms: _190  and  _192
REMARK   77  A    between atoms: _192  and  _193
REMARK   78  A    between atoms: _192  and  _195
REMARK   79  A    between atoms: _195  and  _196
REMARK   80  A    between atoms: _196  and  _197
REMARK   81  A    between atoms: _202  and  _204
REMARK   82  A    between atoms: _204  and  _205
REMARK   83  A    between atoms: _204  and  _207
REMARK   84  A    between atoms: _207  and  _208
REMARK   85  A    between atoms: _208  and  _209
REMARK   86  A    between atoms: _209  and  _210
REMARK   87  A    between atoms: _219  and  _221
REMARK   88  A    between atoms: _221  and  _222
REMARK   89  A    between atoms: _221  and  _224
REMARK   90  A    between atoms: _224  and  _225
REMARK   91  A    between atoms: _231  and  _233
REMARK   92  A    between atoms: _233  and  _234
REMARK   93  A    between atoms: _233  and  _236
REMARK   94  A    between atoms: _236  and  _237
REMARK   95  A    between atoms: _240  and  _242
REMARK   96  A    between atoms: _242  and  _243
REMARK   97  A    between atoms: _242  and  _245
REMARK   98  A    between atoms: _245  and  _246
REMARK   99  A    between atoms: _249  and  _251
REMARK  100  A    between atoms: _251  and  _252
REMARK  101  A    between atoms: _251  and  _254
REMARK  102  A    between atoms: _254  and  _255
REMARK  103  A    between atoms: _259  and  _260
REMARK  104  A    between atoms: _265  and  _267
REMARK  105  A    between atoms: _267  and  _268
REMARK  106  A    between atoms: _267  and  _270
REMARK  107  A    between atoms: _270  and  _271
REMARK  108  A    between atoms: _271  and  _272
REMARK  109  A    between atoms: _274  and  _276
REMARK  110  A    between atoms: _276  and  _277
REMARK  111  A    between atoms: _276  and  _279
REMARK  112  A    between atoms: _279  and  _280
REMARK  113  A    between atoms: _283  and  _285
REMARK  114  A    between atoms: _285  and  _286
REMARK  115  A    between atoms: _285  and  _288
REMARK  116  A    between atoms: _288  and  _289
REMARK  117  A    between atoms: _289  and  _290
REMARK  118  A    between atoms: _295  and  _297
REMARK  119  A    between atoms: _297  and  _298
REMARK  120  A    between atoms: _301  and  _303
REMARK  121  A    between atoms: _303  and  _304
REMARK  122  A    between atoms: _306  and  _308
REMARK  123  A    between atoms: _308  and  _309
REMARK  124  A    between atoms: _308  and  _311
REMARK  125  A    between atoms: _311  and  _312
REMARK  126  A    between atoms: _315  and  _317
REMARK  127  A    between atoms: _317  and  _318
REMARK  128  A    between atoms: _317  and  _320
REMARK  129  A    between atoms: _320  and  _321
REMARK  130  A    between atoms: _323  and  _325
REMARK  131  A    between atoms: _325  and  _326
REMARK  132  A    between atoms: _325  and  _328
REMARK  133  A    between atoms: _328  and  _329
REMARK  134  A    between atoms: _334  and  _336
REMARK  135  A    between atoms: _336  and  _337
REMARK  136  A    between atoms: _336  and  _339
REMARK  137  A    between atoms: _339  and  _340
REMARK  138  A    between atoms: _340  and  _341
REMARK  139  A    between atoms: _344  and  _346
REMARK  140  A    between atoms: _346  and  _347
REMARK  141  A    between atoms: _350  and  _352
REMARK  142  A    between atoms: _352  and  _353
REMARK  143  A    between atoms: _352  and  _355
REMARK  144  A    between atoms: _355  and  _356
REMARK  145  A    between atoms: _362  and  _364
REMARK  146  A    between atoms: _364  and  _365
REMARK  147  A    between atoms: _364  and  _367
REMARK  148  A    between atoms: _367  and  _368
REMARK  149  A    between atoms: _371  and  _373
REMARK  150  A    between atoms: _373  and  _374
REMARK  151  A    between atoms: _373  and  _376
REMARK  152  A    between atoms: _376  and  _377
REMARK  153  A    between atoms: _380  and  _382
REMARK  154  A    between atoms: _382  and  _383
REMARK  155  A    between atoms: _382  and  _385
REMARK  156  A    between atoms: _385  and  _386
REMARK  157  A    between atoms: _389  and  _391
REMARK  158  A    between atoms: _391  and  _392
REMARK  159  A    between atoms: _391  and  _394
REMARK  160  A    between atoms: _394  and  _395
REMARK  161  A    between atoms: _398  and  _400
REMARK  162  A    between atoms: _400  and  _401
REMARK  163  A    between atoms: _400  and  _403
REMARK  164  A    between atoms: _403  and  _404
REMARK  165  A    between atoms: _407  and  _409
REMARK  166  A    between atoms: _409  and  _410
REMARK  167  A    between atoms: _413  and  _415
REMARK  168  A    between atoms: _415  and  _416
REMARK  169  A    between atoms: _415  and  _418
REMARK  170  A    between atoms: _418  and  _419
REMARK  171  A    between atoms: _421  and  _423
REMARK  172  A    between atoms: _423  and  _424
REMARK  173  A    between atoms: _423  and  _426
REMARK  174  A    between atoms: _429  and  _431
REMARK  175  A    between atoms: _431  and  _432
REMARK  176  A    between atoms: _431  and  _434
REMARK  177  A    between atoms: _434  and  _435
REMARK  178  A    between atoms: _437  and  _439
REMARK  179  A    between atoms: _439  and  _440
REMARK  180  A    between atoms: _439  and  _442
REMARK  181  A    between atoms: _442  and  _443
REMARK  182  A    between atoms: _449  and  _451
REMARK  183  A    between atoms: _451  and  _452
REMARK  184  A    between atoms: _451  and  _454
REMARK  185  A    between atoms: _454  and  _455
REMARK  186  A    between atoms: _458  and  _460
REMARK  187  A    between atoms: _460  and  _461
REMARK  188  A    between atoms: _460  and  _463
REMARK  189  A    between atoms: _463  and  _464
REMARK  190  A    between atoms: _467  and  _469
REMARK  191  A    between atoms: _469  and  _470
REMARK  192  A    between atoms: _469  and  _472
REMARK  193  A    between atoms: _472  and  _473
REMARK  194  A    between atoms: _479  and  _481
REMARK  195  A    between atoms: _481  and  _482
REMARK  196  A    between atoms: _484  and  _486
REMARK  197  A    between atoms: _486  and  _487
REMARK  198  A    between atoms: _486  and  _489
REMARK  199  A    between atoms: _489  and  _490
REMARK  200  A    between atoms: _490  and  _491
REMARK  201  A    between atoms: _491  and  _492
REMARK  202  A    between atoms: _492  and  _493
REMARK  203  A    between atoms: _497  and  _499
REMARK  204  A    between atoms: _499  and  _500
REMARK  205  A    between atoms: _502  and  _504
REMARK  206  A    between atoms: _504  and  _505
REMARK  207  A    between atoms: _504  and  _507
REMARK  208  A    between atoms: _510  and  _512
REMARK  209  A    between atoms: _512  and  _513
REMARK  210  A    between atoms: _515  and  _517
REMARK  211  A    between atoms: _517  and  _518
REMARK  212  A    between atoms: _517  and  _520
REMARK  213  A    between atoms: _520  and  _521
REMARK                            x       y       z     vdW  Elec       q    Type
REMARK                         _______ _______ _______ _____ _____    ______ ____
ROOT
ATOM      1  O   HOH     1       1.290  20.584  -6.050  0.00  0.00    +0.000 OA
ENDROOT
TORSDOF 0
REMARK  Name = ../refined-set-2016/4pow/4pow_pocket.pdb
REMARK  213 active torsions:
REMARK  status: ('A' for Active; 'I' for Inactive)
REMARK    1  A    between atoms: _1  and  _3
REMARK    2  A    between atoms: _3  and  _4
REMARK    3  A    between atoms: _3  and  _6
REMARK    4  A    between atoms: _6  and  _7
REMARK    5  A    between atoms: _10  and  _12
REMARK    6  A    between atoms: _12  and  _13
REMARK    7  A    between atoms: _12  and  _15
REMARK    8  A    between atoms: _15  and  _16
REMARK    9  A    between atoms: _16  and  _17
REMARK   10  A    between atoms: _20  and  _22
REMARK   11  A    between atoms: _22  and  _23
REMARK   12  A    between atoms: _25  and  _27
REMARK   13  A    between atoms: _27  and  _28
REMARK   14  A    between atoms: _27  and  _30
REMARK   15  A    between atoms: _30  and  _31
REMARK   16  A    between atoms: _33  and  _35
REMARK   17  A    between atoms: _35  and  _36
REMARK   18  A    between atoms: _35  and  _38
REMARK   19  A    between atoms: _38  and  _39
REMARK   20  A    between atoms: _44  and  _45
REMARK   21  A    between atoms: _47  and  _49
REMARK   22  A    between atoms: _49  and  _50
REMARK   23  A    between atoms: _54  and  _55
REMARK   24  A    between atoms: _60  and  _62
REMARK   25  A    between atoms: _62  and  _63
REMARK   26  A    between atoms: _62  and  _65
REMARK   27  A    between atoms: _65  and  _66
REMARK   28  A    between atoms: _71  and  _72
REMARK   29  A    between atoms: _74  and  _76
REMARK   30  A    between atoms: _76  and  _77
REMARK   31  A    between atoms: _76  and  _79
REMARK   32  A    between atoms: _79  and  _80
REMARK   33  A    between atoms: _85  and  _87
REMARK   34  A    between atoms: _87  and  _88
REMARK   35  A    between atoms: _87  and  _90
REMARK   36  A    between atoms: _90  and  _91
REMARK   37  A    between atoms: _94  and  _96
REMARK   38  A    between atoms: _96  and  _97
REMARK   39  A    between atoms: _96  and  _99
REMARK   40  A    between atoms: _99  and  _100
REMARK   41  A    between atoms: _100  and  _101
REMARK   42  A    between atoms: _106  and  _108
REMARK   43  A    between atoms: _108  and  _109
REMARK   44  A    between atoms: _112  and  _114
REMARK   45  A    between atoms: _114  and  _115
REMARK   46  A    between atoms: _114  and  _117
REMARK   47  A    between atoms: _117  and  _118
REMARK   48  A    between atoms: _128  and  _130
REMARK   49  A    between atoms: _130  and  _131
REMARK   50  A    between atoms: _130  and  _133
REMARK   51  A    between atoms: _133  and  _134
REMARK   52  A    between atoms: _137  and  _139
REMARK   53  A    between atoms: _139  and  _140
REMARK   54  A    between atoms: _139  and  _142
REMARK   55  A    between atoms: _142  and  _143
REMARK   56  A    between atoms: _146  and  _148
REMARK   57  A    between atoms: _148  and  _149
REMARK   58  A    between atoms: _148  and  _151
REMARK   59  A    between atoms: _151  and  _152
REMARK   60  A    between atoms: _152  and  _153
REMARK   61  A    between atoms: _155  and  _157
REMARK   62  A    between atoms: _157  and  _158
REMARK   63  A    between atoms: _161  and  _163
REMARK   64  A    between atoms: _163  and  _164
REMARK   65  A    between atoms: _167  and  _169
REMARK   66  A    between atoms: _169  and  _170
REMARK   67  A    between atoms: _169  and  _172
REMARK   68  A    between atoms: _172  and  _173
REMARK   69  A    between atoms: _173  and  _174
REMARK   70  A    between atoms: _176  and  _178
REMARK   71  A    between atoms: _178  and  _179
REMARK   72  A    between atoms: _181  and  _183
REMARK   73  A    between atoms: _183  and  _184
REMARK   74  A    between atoms: _183  and  _186
REMARK   75  A    between atoms: _186  and  _187
REMARK   76  A    between atoms: _190  and  _192
REMARK   77  A    between atoms: _192  and  _193
REMARK   78  A    between atoms: _192  and  _195
REMARK   79  A    between atoms: _195  and  _196
REMARK   80  A    between atoms: _196  and  _197
REMARK   81  A    between atoms: _202  and  _204
REMARK   82  A    between atoms: _204  and  _205
REMARK   83  A    between atoms: _204  and  _207
REMARK   84  A    between atoms: _207  and  _208
REMARK   85  A    between atoms: _208  and  _209
REMARK   86  A    between atoms: _209  and  _210
REMARK   87  A    between atoms: _219  and  _221
REMARK   88  A    between atoms: _221  and  _222
REMARK   89  A    between atoms: _221  and  _224
REMARK   90  A    between atoms: _224  and  _225
REMARK   91  A    between atoms: _231  and  _233
REMARK   92  A    between atoms: _233  and  _234
REMARK   93  A    between atoms: _233  and  _236
REMARK   94  A    between atoms: _236  and  _237
REMARK   95  A    between atoms: _240  and  _242
REMARK   96  A    between atoms: _242  and  _243
REMARK   97  A    between atoms: _242  and  _245
REMARK   98  A    between atoms: _245  and  _246
REMARK   99  A    between atoms: _249  and  _251
REMARK  100  A    between atoms: _251  and  _252
REMARK  101  A    between atoms: _251  and  _254
REMARK  102  A    between atoms: _254  and  _255
REMARK  103  A    between atoms: _259  and  _260
REMARK  104  A    between atoms: _265  and  _267
REMARK  105  A    between atoms: _267  and  _268
REMARK  106  A    between atoms: _267  and  _270
REMARK  107  A    between atoms: _270  and  _271
REMARK  108  A    between atoms: _271  and  _272
REMARK  109  A    between atoms: _274  and  _276
REMARK  110  A    between atoms: _276  and  _277
REMARK  111  A    between atoms: _276  and  _279
REMARK  112  A    between atoms: _279  and  _280
REMARK  113  A    between atoms: _283  and  _285
REMARK  114  A    between atoms: _285  and  _286
REMARK  115  A    between atoms: _285  and  _288
REMARK  116  A    between atoms: _288  and  _289
REMARK  117  A    between atoms: _289  and  _290
REMARK  118  A    between atoms: _295  and  _297
REMARK  119  A    between atoms: _297  and  _298
REMARK  120  A    between atoms: _301  and  _303
REMARK  121  A    between atoms: _303  and  _304
REMARK  122  A    between atoms: _306  and  _308
REMARK  123  A    between atoms: _308  and  _309
REMARK  124  A    between atoms: _308  and  _311
REMARK  125  A    between atoms: _311  and  _312
REMARK  126  A    between atoms: _315  and  _317
REMARK  127  A    between atoms: _317  and  _318
REMARK  128  A    between atoms: _317  and  _320
REMARK  129  A    between atoms: _320  and  _321
REMARK  130  A    between atoms: _323  and  _325
REMARK  131  A    between atoms: _325  and  _326
REMARK  132  A    between atoms: _325  and  _328
REMARK  133  A    between atoms: _328  and  _329
REMARK  134  A    between atoms: _334  and  _336
REMARK  135  A    between atoms: _336  and  _337
REMARK  136  A    between atoms: _336  and  _339
REMARK  137  A    between atoms: _339  and  _340
REMARK  138  A    between atoms: _340  and  _341
REMARK  139  A    between atoms: _344  and  _346
REMARK  140  A    between atoms: _346  and  _347
REMARK  141  A    between atoms: _350  and  _352
REMARK  142  A    between atoms: _352  and  _353
REMARK  143  A    between atoms: _352  and  _355
REMARK  144  A    between atoms: _355  and  _356
REMARK  145  A    between atoms: _362  and  _364
REMARK  146  A    between atoms: _364  and  _365
REMARK  147  A    between atoms: _364  and  _367
REMARK  148  A    between atoms: _367  and  _368
REMARK  149  A    between atoms: _371  and  _373
REMARK  150  A    between atoms: _373  and  _374
REMARK  151  A    between atoms: _373  and  _376
REMARK  152  A    between atoms: _376  and  _377
REMARK  153  A    between atoms: _380  and  _382
REMARK  154  A    between atoms: _382  and  _383
REMARK  155  A    between atoms: _382  and  _385
REMARK  156  A    between atoms: _385  and  _386
REMARK  157  A    between atoms: _389  and  _391
REMARK  158  A    between atoms: _391  and  _392
REMARK  159  A    between atoms: _391  and  _394
REMARK  160  A    between atoms: _394  and  _395
REMARK  161  A    between atoms: _398  and  _400
REMARK  162  A    between atoms: _400  and  _401
REMARK  163  A    between atoms: _400  and  _403
REMARK  164  A    between atoms: _403  and  _404
REMARK  165  A    between atoms: _407  and  _409
REMARK  166  A    between atoms: _409  and  _410
REMARK  167  A    between atoms: _413  and  _415
REMARK  168  A    between atoms: _415  and  _416
REMARK  169  A    between atoms: _415  and  _418
REMARK  170  A    between atoms: _418  and  _419
REMARK  171  A    between atoms: _421  and  _423
REMARK  172  A    between atoms: _423  and  _424
REMARK  173  A    between atoms: _423  and  _426
REMARK  174  A    between atoms: _429  and  _431
REMARK  175  A    between atoms: _431  and  _432
REMARK  176  A    between atoms: _431  and  _434
REMARK  177  A    between atoms: _434  and  _435
REMARK  178  A    between atoms: _437  and  _439
REMARK  179  A    between atoms: _439  and  _440
REMARK  180  A    between atoms: _439  and  _442
REMARK  181  A    between atoms: _442  and  _443
REMARK  182  A    between atoms: _449  and  _451
REMARK  183  A    between atoms: _451  and  _452
REMARK  184  A    between atoms: _451  and  _454
REMARK  185  A    between atoms: _454  and  _455
REMARK  186  A    between atoms: _458  and  _460
REMARK  187  A    between atoms: _460  and  _461
REMARK  188  A    between atoms: _460  and  _463
REMARK  189  A    between atoms: _463  and  _464
REMARK  190  A    between atoms: _467  and  _469
REMARK  191  A    between atoms: _469  and  _470
REMARK  192  A    between atoms: _469  and  _472
REMARK  193  A    between atoms: _472  and  _473
REMARK  194  A    between atoms: _479  and  _481
REMARK  195  A    between atoms: _481  and  _482
REMARK  196  A    between atoms: _484  and  _486
REMARK  197  A    between atoms: _486  and  _487
REMARK  198  A    between atoms: _486  and  _489
REMARK  199  A    between atoms: _489  and  _490
REMARK  200  A    between atoms: _490  and  _491
REMARK  201  A    between atoms: _491  and  _492
REMARK  202  A    between atoms: _492  and  _493
REMARK  203  A    between atoms: _497  and  _499
REMARK  204  A    between atoms: _499  and  _500
REMARK  205  A    between atoms: _502  and  _504
REMARK  206  A    between atoms: _504  and  _505
REMARK  207  A    between atoms: _504  and  _507
REMARK  208  A    between atoms: _510  and  _512
REMARK  209  A    between atoms: _512  and  _513
REMARK  210  A    between atoms: _515  and  _517
REMARK  211  A    between atoms: _517  and  _518
REMARK  212  A    between atoms: _517  and  _520
REMARK  213  A    between atoms: _520  and  _521
REMARK                            x       y       z     vdW  Elec       q    Type
REMARK                         _______ _______ _______ _____ _____    ______ ____
ROOT
ATOM      1  O   HOH     1       4.067  20.955  14.543  0.00  0.00    +0.000 OA
ENDROOT
TORSDOF 0
REMARK  Name = ../refined-set-2016/4pow/4pow_pocket.pdb
REMARK  213 active torsions:
REMARK  status: ('A' for Active; 'I' for Inactive)
REMARK    1  A    between atoms: _1  and  _3
REMARK    2  A    between atoms: _3  and  _4
REMARK    3  A    between atoms: _3  and  _6
REMARK    4  A    between atoms: _6  and  _7
REMARK    5  A    between atoms: _10  and  _12
REMARK    6  A    between atoms: _12  and  _13
REMARK    7  A    between atoms: _12  and  _15
REMARK    8  A    between atoms: _15  and  _16
REMARK    9  A    between atoms: _16  and  _17
REMARK   10  A    between atoms: _20  and  _22
REMARK   11  A    between atoms: _22  and  _23
REMARK   12  A    between atoms: _25  and  _27
REMARK   13  A    between atoms: _27  and  _28
REMARK   14  A    between atoms: _27  and  _30
REMARK   15  A    between atoms: _30  and  _31
REMARK   16  A    between atoms: _33  and  _35
REMARK   17  A    between atoms: _35  and  _36
REMARK   18  A    between atoms: _35  and  _38
REMARK   19  A    between atoms: _38  and  _39
REMARK   20  A    between atoms: _44  and  _45
REMARK   21  A    between atoms: _47  and  _49
REMARK   22  A    between atoms: _49  and  _50
REMARK   23  A    between atoms: _54  and  _55
REMARK   24  A    between atoms: _60  and  _62
REMARK   25  A    between atoms: _62  and  _63
REMARK   26  A    between atoms: _62  and  _65
REMARK   27  A    between atoms: _65  and  _66
REMARK   28  A    between atoms: _71  and  _72
REMARK   29  A    between atoms: _74  and  _76
REMARK   30  A    between atoms: _76  and  _77
REMARK   31  A    between atoms: _76  and  _79
REMARK   32  A    between atoms: _79  and  _80
REMARK   33  A    between atoms: _85  and  _87
REMARK   34  A    between atoms: _87  and  _88
REMARK   35  A    between atoms: _87  and  _90
REMARK   36  A    between atoms: _90  and  _91
REMARK   37  A    between atoms: _94  and  _96
REMARK   38  A    between atoms: _96  and  _97
REMARK   39  A    between atoms: _96  and  _99
REMARK   40  A    between atoms: _99  and  _100
REMARK   41  A    between atoms: _100  and  _101
REMARK   42  A    between atoms: _106  and  _108
REMARK   43  A    between atoms: _108  and  _109
REMARK   44  A    between atoms: _112  and  _114
REMARK   45  A    between atoms: _114  and  _115
REMARK   46  A    between atoms: _114  and  _117
REMARK   47  A    between atoms: _117  and  _118
REMARK   48  A    between atoms: _128  and  _130
REMARK   49  A    between atoms: _130  and  _131
REMARK   50  A    between atoms: _130  and  _133
REMARK   51  A    between atoms: _133  and  _134
REMARK   52  A    between atoms: _137  and  _139
REMARK   53  A    between atoms: _139  and  _140
REMARK   54  A    between atoms: _139  and  _142
REMARK   55  A    between atoms: _142  and  _143
REMARK   56  A    between atoms: _146  and  _148
REMARK   57  A    between atoms: _148  and  _149
REMARK   58  A    between atoms: _148  and  _151
REMARK   59  A    between atoms: _151  and  _152
REMARK   60  A    between atoms: _152  and  _153
REMARK   61  A    between atoms: _155  and  _157
REMARK   62  A    between atoms: _157  and  _158
REMARK   63  A    between atoms: _161  and  _163
REMARK   64  A    between atoms: _163  and  _164
REMARK   65  A    between atoms: _167  and  _169
REMARK   66  A    between atoms: _169  and  _170
REMARK   67  A    between atoms: _169  and  _172
REMARK   68  A    between atoms: _172  and  _173
REMARK   69  A    between atoms: _173  and  _174
REMARK   70  A    between atoms: _176  and  _178
REMARK   71  A    between atoms: _178  and  _179
REMARK   72  A    between atoms: _181  and  _183
REMARK   73  A    between atoms: _183  and  _184
REMARK   74  A    between atoms: _183  and  _186
REMARK   75  A    between atoms: _186  and  _187
REMARK   76  A    between atoms: _190  and  _192
REMARK   77  A    between atoms: _192  and  _193
REMARK   78  A    between atoms: _192  and  _195
REMARK   79  A    between atoms: _195  and  _196
REMARK   80  A    between atoms: _196  and  _197
REMARK   81  A    between atoms: _202  and  _204
REMARK   82  A    between atoms: _204  and  _205
REMARK   83  A    between atoms: _204  and  _207
REMARK   84  A    between atoms: _207  and  _208
REMARK   85  A    between atoms: _208  and  _209
REMARK   86  A    between atoms: _209  and  _210
REMARK   87  A    between atoms: _219  and  _221
REMARK   88  A    between atoms: _221  and  _222
REMARK   89  A    between atoms: _221  and  _224
REMARK   90  A    between atoms: _224  and  _225
REMARK   91  A    between atoms: _231  and  _233
REMARK   92  A    between atoms: _233  and  _234
REMARK   93  A    between atoms: _233  and  _236
REMARK   94  A    between atoms: _236  and  _237
REMARK   95  A    between atoms: _240  and  _242
REMARK   96  A    between atoms: _242  and  _243
REMARK   97  A    between atoms: _242  and  _245
REMARK   98  A    between atoms: _245  and  _246
REMARK   99  A    between atoms: _249  and  _251
REMARK  100  A    between atoms: _251  and  _252
REMARK  101  A    between atoms: _251  and  _254
REMARK  102  A    between atoms: _254  and  _255
REMARK  103  A    between atoms: _259  and  _260
REMARK  104  A    between atoms: _265  and  _267
REMARK  105  A    between atoms: _267  and  _268
REMARK  106  A    between atoms: _267  and  _270
REMARK  107  A    between atoms: _270  and  _271
REMARK  108  A    between atoms: _271  and  _272
REMARK  109  A    between atoms: _274  and  _276
REMARK  110  A    between atoms: _276  and  _277
REMARK  111  A    between atoms: _276  and  _279
REMARK  112  A    between atoms: _279  and  _280
REMARK  113  A    between atoms: _283  and  _285
REMARK  114  A    between atoms: _285  and  _286
REMARK  115  A    between atoms: _285  and  _288
REMARK  116  A    between atoms: _288  and  _289
REMARK  117  A    between atoms: _289  and  _290
REMARK  118  A    between atoms: _295  and  _297
REMARK  119  A    between atoms: _297  and  _298
REMARK  120  A    between atoms: _301  and  _303
REMARK  121  A    between atoms: _303  and  _304
REMARK  122  A    between atoms: _306  and  _308
REMARK  123  A    between atoms: _308  and  _309
REMARK  124  A    between atoms: _308  and  _311
REMARK  125  A    between atoms: _311  and  _312
REMARK  126  A    between atoms: _315  and  _317
REMARK  127  A    between atoms: _317  and  _318
REMARK  128  A    between atoms: _317  and  _320
REMARK  129  A    between atoms: _320  and  _321
REMARK  130  A    between atoms: _323  and  _325
REMARK  131  A    between atoms: _325  and  _326
REMARK  132  A    between atoms: _325  and  _328
REMARK  133  A    between atoms: _328  and  _329
REMARK  134  A    between atoms: _334  and  _336
REMARK  135  A    between atoms: _336  and  _337
REMARK  136  A    between atoms: _336  and  _339
REMARK  137  A    between atoms: _339  and  _340
REMARK  138  A    between atoms: _340  and  _341
REMARK  139  A    between atoms: _344  and  _346
REMARK  140  A    between atoms: _346  and  _347
REMARK  141  A    between atoms: _350  and  _352
REMARK  142  A    between atoms: _352  and  _353
REMARK  143  A    between atoms: _352  and  _355
REMARK  144  A    between atoms: _355  and  _356
REMARK  145  A    between atoms: _362  and  _364
REMARK  146  A    between atoms: _364  and  _365
REMARK  147  A    between atoms: _364  and  _367
REMARK  148  A    between atoms: _367  and  _368
REMARK  149  A    between atoms: _371  and  _373
REMARK  150  A    between atoms: _373  and  _374
REMARK  151  A    between atoms: _373  and  _376
REMARK  152  A    between atoms: _376  and  _377
REMARK  153  A    between atoms: _380  and  _382
REMARK  154  A    between atoms: _382  and  _383
REMARK  155  A    between atoms: _382  and  _385
REMARK  156  A    between atoms: _385  and  _386
REMARK  157  A    between atoms: _389  and  _391
REMARK  158  A    between atoms: _391  and  _392
REMARK  159  A    between atoms: _391  and  _394
REMARK  160  A    between atoms: _394  and  _395
REMARK  161  A    between atoms: _398  and  _400
REMARK  162  A    between atoms: _400  and  _401
REMARK  163  A    between atoms: _400  and  _403
REMARK  164  A    between atoms: _403  and  _404
REMARK  165  A    between atoms: _407  and  _409
REMARK  166  A    between atoms: _409  and  _410
REMARK  167  A    between atoms: _413  and  _415
REMARK  168  A    between atoms: _415  and  _416
REMARK  169  A    between atoms: _415  and  _418
REMARK  170  A    between atoms: _418  and  _419
REMARK  171  A    between atoms: _421  and  _423
REMARK  172  A    between atoms: _423  and  _424
REMARK  173  A    between atoms: _423  and  _426
REMARK  174  A    between atoms: _429  and  _431
REMARK  175  A    between atoms: _431  and  _432
REMARK  176  A    between atoms: _431  and  _434
REMARK  177  A    between atoms: _434  and  _435
REMARK  178  A    between atoms: _437  and  _439
REMARK  179  A    between atoms: _439  and  _440
REMARK  180  A    between atoms: _439  and  _442
REMARK  181  A    between atoms: _442  and  _443
REMARK  182  A    between atoms: _449  and  _451
REMARK  183  A    between atoms: _451  and  _452
REMARK  184  A    between atoms: _451  and  _454
REMARK  185  A    between atoms: _454  and  _455
REMARK  186  A    between atoms: _458  and  _460
REMARK  187  A    between atoms: _460  and  _461
REMARK  188  A    between atoms: _460  and  _463
REMARK  189  A    between atoms: _463  and  _464
REMARK  190  A    between atoms: _467  and  _469
REMARK  191  A    between atoms: _469  and  _470
REMARK  192  A    between atoms: _469  and  _472
REMARK  193  A    between atoms: _472  and  _473
REMARK  194  A    between atoms: _479  and  _481
REMARK  195  A    between atoms: _481  and  _482
REMARK  196  A    between atoms: _484  and  _486
REMARK  197  A    between atoms: _486  and  _487
REMARK  198  A    between atoms: _486  and  _489
REMARK  199  A    between atoms: _489  and  _490
REMARK  200  A    between atoms: _490  and  _491
REMARK  201  A    between atoms: _491  and  _492
REMARK  202  A    between atoms: _492  and  _493
REMARK  203  A    between atoms: _497  and  _499
REMARK  204  A    between atoms: _499  and  _500
REMARK  205  A    between atoms: _502  and  _504
REMARK  206  A    between atoms: _504  and  _505
REMARK  207  A    between atoms: _504  and  _507
REMARK  208  A    between atoms: _510  and  _512
REMARK  209  A    between atoms: _512  and  _513
REMARK  210  A    between atoms: _515  and  _517
REMARK  211  A    between atoms: _517  and  _518
REMARK  212  A    between atoms: _517  and  _520
REMARK  213  A    between atoms: _520  and  _521
REMARK                            x       y       z     vdW  Elec       q    Type
REMARK                         _______ _______ _______ _____ _____    ______ ____
ROOT
ATOM      1  O   HOH     1      10.767  26.602   8.864  0.00  0.00    +0.000 OA
ENDROOT
TORSDOF 0
REMARK  Name = ../refined-set-2016/4pow/4pow_pocket.pdb
REMARK  213 active torsions:
REMARK  status: ('A' for Active; 'I' for Inactive)
REMARK    1  A    between atoms: _1  and  _3
REMARK    2  A    between atoms: _3  and  _4
REMARK    3  A    between atoms: _3  and  _6
REMARK    4  A    between atoms: _6  and  _7
REMARK    5  A    between atoms: _10  and  _12
REMARK    6  A    between atoms: _12  and  _13
REMARK    7  A    between atoms: _12  and  _15
REMARK    8  A    between atoms: _15  and  _16
REMARK    9  A    between atoms: _16  and  _17
REMARK   10  A    between atoms: _20  and  _22
REMARK   11  A    between atoms: _22  and  _23
REMARK   12  A    between atoms: _25  and  _27
REMARK   13  A    between atoms: _27  and  _28
REMARK   14  A    between atoms: _27  and  _30
REMARK   15  A    between atoms: _30  and  _31
REMARK   16  A    between atoms: _33  and  _35
REMARK   17  A    between atoms: _35  and  _36
REMARK   18  A    between atoms: _35  and  _38
REMARK   19  A    between atoms: _38  and  _39
REMARK   20  A    between atoms: _44  and  _45
REMARK   21  A    between atoms: _47  and  _49
REMARK   22  A    between atoms: _49  and  _50
REMARK   23  A    between atoms: _54  and  _55
REMARK   24  A    between atoms: _60  and  _62
REMARK   25  A    between atoms: _62  and  _63
REMARK   26  A    between atoms: _62  and  _65
REMARK   27  A    between atoms: _65  and  _66
REMARK   28  A    between atoms: _71  and  _72
REMARK   29  A    between atoms: _74  and  _76
REMARK   30  A    between atoms: _76  and  _77
REMARK   31  A    between atoms: _76  and  _79
REMARK   32  A    between atoms: _79  and  _80
REMARK   33  A    between atoms: _85  and  _87
REMARK   34  A    between atoms: _87  and  _88
REMARK   35  A    between atoms: _87  and  _90
REMARK   36  A    between atoms: _90  and  _91
REMARK   37  A    between atoms: _94  and  _96
REMARK   38  A    between atoms: _96  and  _97
REMARK   39  A    between atoms: _96  and  _99
REMARK   40  A    between atoms: _99  and  _100
REMARK   41  A    between atoms: _100  and  _101
REMARK   42  A    between atoms: _106  and  _108
REMARK   43  A    between atoms: _108  and  _109
REMARK   44  A    between atoms: _112  and  _114
REMARK   45  A    between atoms: _114  and  _115
REMARK   46  A    between atoms: _114  and  _117
REMARK   47  A    between atoms: _117  and  _118
REMARK   48  A    between atoms: _128  and  _130
REMARK   49  A    between atoms: _130  and  _131
REMARK   50  A    between atoms: _130  and  _133
REMARK   51  A    between atoms: _133  and  _134
REMARK   52  A    between atoms: _137  and  _139
REMARK   53  A    between atoms: _139  and  _140
REMARK   54  A    between atoms: _139  and  _142
REMARK   55  A    between atoms: _142  and  _143
REMARK   56  A    between atoms: _146  and  _148
REMARK   57  A    between atoms: _148  and  _149
REMARK   58  A    between atoms: _148  and  _151
REMARK   59  A    between atoms: _151  and  _152
REMARK   60  A    between atoms: _152  and  _153
REMARK   61  A    between atoms: _155  and  _157
REMARK   62  A    between atoms: _157  and  _158
REMARK   63  A    between atoms: _161  and  _163
REMARK   64  A    between atoms: _163  and  _164
REMARK   65  A    between atoms: _167  and  _169
REMARK   66  A    between atoms: _169  and  _170
REMARK   67  A    between atoms: _169  and  _172
REMARK   68  A    between atoms: _172  and  _173
REMARK   69  A    between atoms: _173  and  _174
REMARK   70  A    between atoms: _176  and  _178
REMARK   71  A    between atoms: _178  and  _179
REMARK   72  A    between atoms: _181  and  _183
REMARK   73  A    between atoms: _183  and  _184
REMARK   74  A    between atoms: _183  and  _186
REMARK   75  A    between atoms: _186  and  _187
REMARK   76  A    between atoms: _190  and  _192
REMARK   77  A    between atoms: _192  and  _193
REMARK   78  A    between atoms: _192  and  _195
REMARK   79  A    between atoms: _195  and  _196
REMARK   80  A    between atoms: _196  and  _197
REMARK   81  A    between atoms: _202  and  _204
REMARK   82  A    between atoms: _204  and  _205
REMARK   83  A    between atoms: _204  and  _207
REMARK   84  A    between atoms: _207  and  _208
REMARK   85  A    between atoms: _208  and  _209
REMARK   86  A    between atoms: _209  and  _210
REMARK   87  A    between atoms: _219  and  _221
REMARK   88  A    between atoms: _221  and  _222
REMARK   89  A    between atoms: _221  and  _224
REMARK   90  A    between atoms: _224  and  _225
REMARK   91  A    between atoms: _231  and  _233
REMARK   92  A    between atoms: _233  and  _234
REMARK   93  A    between atoms: _233  and  _236
REMARK   94  A    between atoms: _236  and  _237
REMARK   95  A    between atoms: _240  and  _242
REMARK   96  A    between atoms: _242  and  _243
REMARK   97  A    between atoms: _242  and  _245
REMARK   98  A    between atoms: _245  and  _246
REMARK   99  A    between atoms: _249  and  _251
REMARK  100  A    between atoms: _251  and  _252
REMARK  101  A    between atoms: _251  and  _254
REMARK  102  A    between atoms: _254  and  _255
REMARK  103  A    between atoms: _259  and  _260
REMARK  104  A    between atoms: _265  and  _267
REMARK  105  A    between atoms: _267  and  _268
REMARK  106  A    between atoms: _267  and  _270
REMARK  107  A    between atoms: _270  and  _271
REMARK  108  A    between atoms: _271  and  _272
REMARK  109  A    between atoms: _274  and  _276
REMARK  110  A    between atoms: _276  and  _277
REMARK  111  A    between atoms: _276  and  _279
REMARK  112  A    between atoms: _279  and  _280
REMARK  113  A    between atoms: _283  and  _285
REMARK  114  A    between atoms: _285  and  _286
REMARK  115  A    between atoms: _285  and  _288
REMARK  116  A    between atoms: _288  and  _289
REMARK  117  A    between atoms: _289  and  _290
REMARK  118  A    between atoms: _295  and  _297
REMARK  119  A    between atoms: _297  and  _298
REMARK  120  A    between atoms: _301  and  _303
REMARK  121  A    between atoms: _303  and  _304
REMARK  122  A    between atoms: _306  and  _308
REMARK  123  A    between atoms: _308  and  _309
REMARK  124  A    between atoms: _308  and  _311
REMARK  125  A    between atoms: _311  and  _312
REMARK  126  A    between atoms: _315  and  _317
REMARK  127  A    between atoms: _317  and  _318
REMARK  128  A    between atoms: _317  and  _320
REMARK  129  A    between atoms: _320  and  _321
REMARK  130  A    between atoms: _323  and  _325
REMARK  131  A    between atoms: _325  and  _326
REMARK  132  A    between atoms: _325  and  _328
REMARK  133  A    between atoms: _328  and  _329
REMARK  134  A    between atoms: _334  and  _336
REMARK  135  A    between atoms: _336  and  _337
REMARK  136  A    between atoms: _336  and  _339
REMARK  137  A    between atoms: _339  and  _340
REMARK  138  A    between atoms: _340  and  _341
REMARK  139  A    between atoms: _344  and  _346
REMARK  140  A    between atoms: _346  and  _347
REMARK  141  A    between atoms: _350  and  _352
REMARK  142  A    between atoms: _352  and  _353
REMARK  143  A    between atoms: _352  and  _355
REMARK  144  A    between atoms: _355  and  _356
REMARK  145  A    between atoms: _362  and  _364
REMARK  146  A    between atoms: _364  and  _365
REMARK  147  A    between atoms: _364  and  _367
REMARK  148  A    between atoms: _367  and  _368
REMARK  149  A    between atoms: _371  and  _373
REMARK  150  A    between atoms: _373  and  _374
REMARK  151  A    between atoms: _373  and  _376
REMARK  152  A    between atoms: _376  and  _377
REMARK  153  A    between atoms: _380  and  _382
REMARK  154  A    between atoms: _382  and  _383
REMARK  155  A    between atoms: _382  and  _385
REMARK  156  A    between atoms: _385  and  _386
REMARK  157  A    between atoms: _389  and  _391
REMARK  158  A    between atoms: _391  and  _392
REMARK  159  A    between atoms: _391  and  _394
REMARK  160  A    between atoms: _394  and  _395
REMARK  161  A    between atoms: _398  and  _400
REMARK  162  A    between atoms: _400  and  _401
REMARK  163  A    between atoms: _400  and  _403
REMARK  164  A    between atoms: _403  and  _404
REMARK  165  A    between atoms: _407  and  _409
REMARK  166  A    between atoms: _409  and  _410
REMARK  167  A    between atoms: _413  and  _415
REMARK  168  A    between atoms: _415  and  _416
REMARK  169  A    between atoms: _415  and  _418
REMARK  170  A    between atoms: _418  and  _419
REMARK  171  A    between atoms: _421  and  _423
REMARK  172  A    between atoms: _423  and  _424
REMARK  173  A    between atoms: _423  and  _426
REMARK  174  A    between atoms: _429  and  _431
REMARK  175  A    between atoms: _431  and  _432
REMARK  176  A    between atoms: _431  and  _434
REMARK  177  A    between atoms: _434  and  _435
REMARK  178  A    between atoms: _437  and  _439
REMARK  179  A    between atoms: _439  and  _440
REMARK  180  A    between atoms: _439  and  _442
REMARK  181  A    between atoms: _442  and  _443
REMARK  182  A    between atoms: _449  and  _451
REMARK  183  A    between atoms: _451  and  _452
REMARK  184  A    between atoms: _451  and  _454
REMARK  185  A    between atoms: _454  and  _455
REMARK  186  A    between atoms: _458  and  _460
REMARK  187  A    between atoms: _460  and  _461
REMARK  188  A    between atoms: _460  and  _463
REMARK  189  A    between atoms: _463  and  _464
REMARK  190  A    between atoms: _467  and  _469
REMARK  191  A    between atoms: _469  and  _470
REMARK  192  A    between atoms: _469  and  _472
REMARK  193  A    between atoms: _472  and  _473
REMARK  194  A    between atoms: _479  and  _481
REMARK  195  A    between atoms: _481  and  _482
REMARK  196  A    between atoms: _484  and  _486
REMARK  197  A    between atoms: _486  and  _487
REMARK  198  A    between atoms: _486  and  _489
REMARK  199  A    between atoms: _489  and  _490
REMARK  200  A    between atoms: _490  and  _491
REMARK  201  A    between atoms: _491  and  _492
REMARK  202  A    between atoms: _492  and  _493
REMARK  203  A    between atoms: _497  and  _499
REMARK  204  A    between atoms: _499  and  _500
REMARK  205  A    between atoms: _502  and  _504
REMARK  206  A    between atoms: _504  and  _505
REMARK  207  A    between atoms: _504  and  _507
REMARK  208  A    between atoms: _510  and  _512
REMARK  209  A    between atoms: _512  and  _513
REMARK  210  A    between atoms: _515  and  _517
REMARK  211  A    between atoms: _517  and  _518
REMARK  212  A    between atoms: _517  and  _520
REMARK  213  A    between atoms: _520  and  _521
REMARK                            x       y       z     vdW  Elec       q    Type
REMARK                         _______ _______ _______ _____ _____    ______ ____
ROOT
ATOM      1  O   HOH     1       0.403  15.939   0.029  0.00  0.00    +0.000 OA
ENDROOT
TORSDOF 0
REMARK  Name = ../refined-set-2016/4pow/4pow_pocket.pdb
REMARK  213 active torsions:
REMARK  status: ('A' for Active; 'I' for Inactive)
REMARK    1  A    between atoms: _1  and  _3
REMARK    2  A    between atoms: _3  and  _4
REMARK    3  A    between atoms: _3  and  _6
REMARK    4  A    between atoms: _6  and  _7
REMARK    5  A    between atoms: _10  and  _12
REMARK    6  A    between atoms: _12  and  _13
REMARK    7  A    between atoms: _12  and  _15
REMARK    8  A    between atoms: _15  and  _16
REMARK    9  A    between atoms: _16  and  _17
REMARK   10  A    between atoms: _20  and  _22
REMARK   11  A    between atoms: _22  and  _23
REMARK   12  A    between atoms: _25  and  _27
REMARK   13  A    between atoms: _27  and  _28
REMARK   14  A    between atoms: _27  and  _30
REMARK   15  A    between atoms: _30  and  _31
REMARK   16  A    between atoms: _33  and  _35
REMARK   17  A    between atoms: _35  and  _36
REMARK   18  A    between atoms: _35  and  _38
REMARK   19  A    between atoms: _38  and  _39
REMARK   20  A    between atoms: _44  and  _45
REMARK   21  A    between atoms: _47  and  _49
REMARK   22  A    between atoms: _49  and  _50
REMARK   23  A    between atoms: _54  and  _55
REMARK   24  A    between atoms: _60  and  _62
REMARK   25  A    between atoms: _62  and  _63
REMARK   26  A    between atoms: _62  and  _65
REMARK   27  A    between atoms: _65  and  _66
REMARK   28  A    between atoms: _71  and  _72
REMARK   29  A    between atoms: _74  and  _76
REMARK   30  A    between atoms: _76  and  _77
REMARK   31  A    between atoms: _76  and  _79
REMARK   32  A    between atoms: _79  and  _80
REMARK   33  A    between atoms: _85  and  _87
REMARK   34  A    between atoms: _87  and  _88
REMARK   35  A    between atoms: _87  and  _90
REMARK   36  A    between atoms: _90  and  _91
REMARK   37  A    between atoms: _94  and  _96
REMARK   38  A    between atoms: _96  and  _97
REMARK   39  A    between atoms: _96  and  _99
REMARK   40  A    between atoms: _99  and  _100
REMARK   41  A    between atoms: _100  and  _101
REMARK   42  A    between atoms: _106  and  _108
REMARK   43  A    between atoms: _108  and  _109
REMARK   44  A    between atoms: _112  and  _114
REMARK   45  A    between atoms: _114  and  _115
REMARK   46  A    between atoms: _114  and  _117
REMARK   47  A    between atoms: _117  and  _118
REMARK   48  A    between atoms: _128  and  _130
REMARK   49  A    between atoms: _130  and  _131
REMARK   50  A    between atoms: _130  and  _133
REMARK   51  A    between atoms: _133  and  _134
REMARK   52  A    between atoms: _137  and  _139
REMARK   53  A    between atoms: _139  and  _140
REMARK   54  A    between atoms: _139  and  _142
REMARK   55  A    between atoms: _142  and  _143
REMARK   56  A    between atoms: _146  and  _148
REMARK   57  A    between atoms: _148  and  _149
REMARK   58  A    between atoms: _148  and  _151
REMARK   59  A    between atoms: _151  and  _152
REMARK   60  A    between atoms: _152  and  _153
REMARK   61  A    between atoms: _155  and  _157
REMARK   62  A    between atoms: _157  and  _158
REMARK   63  A    between atoms: _161  and  _163
REMARK   64  A    between atoms: _163  and  _164
REMARK   65  A    between atoms: _167  and  _169
REMARK   66  A    between atoms: _169  and  _170
REMARK   67  A    between atoms: _169  and  _172
REMARK   68  A    between atoms: _172  and  _173
REMARK   69  A    between atoms: _173  and  _174
REMARK   70  A    between atoms: _176  and  _178
REMARK   71  A    between atoms: _178  and  _179
REMARK   72  A    between atoms: _181  and  _183
REMARK   73  A    between atoms: _183  and  _184
REMARK   74  A    between atoms: _183  and  _186
REMARK   75  A    between atoms: _186  and  _187
REMARK   76  A    between atoms: _190  and  _192
REMARK   77  A    between atoms: _192  and  _193
REMARK   78  A    between atoms: _192  and  _195
REMARK   79  A    between atoms: _195  and  _196
REMARK   80  A    between atoms: _196  and  _197
REMARK   81  A    between atoms: _202  and  _204
REMARK   82  A    between atoms: _204  and  _205
REMARK   83  A    between atoms: _204  and  _207
REMARK   84  A    between atoms: _207  and  _208
REMARK   85  A    between atoms: _208  and  _209
REMARK   86  A    between atoms: _209  and  _210
REMARK   87  A    between atoms: _219  and  _221
REMARK   88  A    between atoms: _221  and  _222
REMARK   89  A    between atoms: _221  and  _224
REMARK   90  A    between atoms: _224  and  _225
REMARK   91  A    between atoms: _231  and  _233
REMARK   92  A    between atoms: _233  and  _234
REMARK   93  A    between atoms: _233  and  _236
REMARK   94  A    between atoms: _236  and  _237
REMARK   95  A    between atoms: _240  and  _242
REMARK   96  A    between atoms: _242  and  _243
REMARK   97  A    between atoms: _242  and  _245
REMARK   98  A    between atoms: _245  and  _246
REMARK   99  A    between atoms: _249  and  _251
REMARK  100  A    between atoms: _251  and  _252
REMARK  101  A    between atoms: _251  and  _254
REMARK  102  A    between atoms: _254  and  _255
REMARK  103  A    between atoms: _259  and  _260
REMARK  104  A    between atoms: _265  and  _267
REMARK  105  A    between atoms: _267  and  _268
REMARK  106  A    between atoms: _267  and  _270
REMARK  107  A    between atoms: _270  and  _271
REMARK  108  A    between atoms: _271  and  _272
REMARK  109  A    between atoms: _274  and  _276
REMARK  110  A    between atoms: _276  and  _277
REMARK  111  A    between atoms: _276  and  _279
REMARK  112  A    between atoms: _279  and  _280
REMARK  113  A    between atoms: _283  and  _285
REMARK  114  A    between atoms: _285  and  _286
REMARK  115  A    between atoms: _285  and  _288
REMARK  116  A    between atoms: _288  and  _289
REMARK  117  A    between atoms: _289  and  _290
REMARK  118  A    between atoms: _295  and  _297
REMARK  119  A    between atoms: _297  and  _298
REMARK  120  A    between atoms: _301  and  _303
REMARK  121  A    between atoms: _303  and  _304
REMARK  122  A    between atoms: _306  and  _308
REMARK  123  A    between atoms: _308  and  _309
REMARK  124  A    between atoms: _308  and  _311
REMARK  125  A    between atoms: _311  and  _312
REMARK  126  A    between atoms: _315  and  _317
REMARK  127  A    between atoms: _317  and  _318
REMARK  128  A    between atoms: _317  and  _320
REMARK  129  A    between atoms: _320  and  _321
REMARK  130  A    between atoms: _323  and  _325
REMARK  131  A    between atoms: _325  and  _326
REMARK  132  A    between atoms: _325  and  _328
REMARK  133  A    between atoms: _328  and  _329
REMARK  134  A    between atoms: _334  and  _336
REMARK  135  A    between atoms: _336  and  _337
REMARK  136  A    between atoms: _336  and  _339
REMARK  137  A    between atoms: _339  and  _340
REMARK  138  A    between atoms: _340  and  _341
REMARK  139  A    between atoms: _344  and  _346
REMARK  140  A    between atoms: _346  and  _347
REMARK  141  A    between atoms: _350  and  _352
REMARK  142  A    between atoms: _352  and  _353
REMARK  143  A    between atoms: _352  and  _355
REMARK  144  A    between atoms: _355  and  _356
REMARK  145  A    between atoms: _362  and  _364
REMARK  146  A    between atoms: _364  and  _365
REMARK  147  A    between atoms: _364  and  _367
REMARK  148  A    between atoms: _367  and  _368
REMARK  149  A    between atoms: _371  and  _373
REMARK  150  A    between atoms: _373  and  _374
REMARK  151  A    between atoms: _373  and  _376
REMARK  152  A    between atoms: _376  and  _377
REMARK  153  A    between atoms: _380  and  _382
REMARK  154  A    between atoms: _382  and  _383
REMARK  155  A    between atoms: _382  and  _385
REMARK  156  A    between atoms: _385  and  _386
REMARK  157  A    between atoms: _389  and  _391
REMARK  158  A    between atoms: _391  and  _392
REMARK  159  A    between atoms: _391  and  _394
REMARK  160  A    between atoms: _394  and  _395
REMARK  161  A    between atoms: _398  and  _400
REMARK  162  A    between atoms: _400  and  _401
REMARK  163  A    between atoms: _400  and  _403
REMARK  164  A    between atoms: _403  and  _404
REMARK  165  A    between atoms: _407  and  _409
REMARK  166  A    between atoms: _409  and  _410
REMARK  167  A    between atoms: _413  and  _415
REMARK  168  A    between atoms: _415  and  _416
REMARK  169  A    between atoms: _415  and  _418
REMARK  170  A    between atoms: _418  and  _419
REMARK  171  A    between atoms: _421  and  _423
REMARK  172  A    between atoms: _423  and  _424
REMARK  173  A    between atoms: _423  and  _426
REMARK  174  A    between atoms: _429  and  _431
REMARK  175  A    between atoms: _431  and  _432
REMARK  176  A    between atoms: _431  and  _434
REMARK  177  A    between atoms: _434  and  _435
REMARK  178  A    between atoms: _437  and  _439
REMARK  179  A    between atoms: _439  and  _440
REMARK  180  A    between atoms: _439  and  _442
REMARK  181  A    between atoms: _442  and  _443
REMARK  182  A    between atoms: _449  and  _451
REMARK  183  A    between atoms: _451  and  _452
REMARK  184  A    between atoms: _451  and  _454
REMARK  185  A    between atoms: _454  and  _455
REMARK  186  A    between atoms: _458  and  _460
REMARK  187  A    between atoms: _460  and  _461
REMARK  188  A    between atoms: _460  and  _463
REMARK  189  A    between atoms: _463  and  _464
REMARK  190  A    between atoms: _467  and  _469
REMARK  191  A    between atoms: _469  and  _470
REMARK  192  A    between atoms: _469  and  _472
REMARK  193  A    between atoms: _472  and  _473
REMARK  194  A    between atoms: _479  and  _481
REMARK  195  A    between atoms: _481  and  _482
REMARK  196  A    between atoms: _484  and  _486
REMARK  197  A    between atoms: _486  and  _487
REMARK  198  A    between atoms: _486  and  _489
REMARK  199  A    between atoms: _489  and  _490
REMARK  200  A    between atoms: _490  and  _491
REMARK  201  A    between atoms: _491  and  _492
REMARK  202  A    between atoms: _492  and  _493
REMARK  203  A    between atoms: _497  and  _499
REMARK  204  A    between atoms: _499  and  _500
REMARK  205  A    between atoms: _502  and  _504
REMARK  206  A    between atoms: _504  and  _505
REMARK  207  A    between atoms: _504  and  _507
REMARK  208  A    between atoms: _510  and  _512
REMARK  209  A    between atoms: _512  and  _513
REMARK  210  A    between atoms: _515  and  _517
REMARK  211  A    between atoms: _517  and  _518
REMARK  212  A    between atoms: _517  and  _520
REMARK  213  A    between atoms: _520  and  _521
REMARK                            x       y       z     vdW  Elec       q    Type
REMARK                         _______ _______ _______ _____ _____    ______ ____
ROOT
ATOM      1  O   HOH     1      -1.442  16.203  10.334  0.00  0.00    +0.000 OA
ENDROOT
TORSDOF 0
REMARK  Name = ../refined-set-2016/4pow/4pow_pocket.pdb
REMARK  213 active torsions:
REMARK  status: ('A' for Active; 'I' for Inactive)
REMARK    1  A    between atoms: _1  and  _3
REMARK    2  A    between atoms: _3  and  _4
REMARK    3  A    between atoms: _3  and  _6
REMARK    4  A    between atoms: _6  and  _7
REMARK    5  A    between atoms: _10  and  _12
REMARK    6  A    between atoms: _12  and  _13
REMARK    7  A    between atoms: _12  and  _15
REMARK    8  A    between atoms: _15  and  _16
REMARK    9  A    between atoms: _16  and  _17
REMARK   10  A    between atoms: _20  and  _22
REMARK   11  A    between atoms: _22  and  _23
REMARK   12  A    between atoms: _25  and  _27
REMARK   13  A    between atoms: _27  and  _28
REMARK   14  A    between atoms: _27  and  _30
REMARK   15  A    between atoms: _30  and  _31
REMARK   16  A    between atoms: _33  and  _35
REMARK   17  A    between atoms: _35  and  _36
REMARK   18  A    between atoms: _35  and  _38
REMARK   19  A    between atoms: _38  and  _39
REMARK   20  A    between atoms: _44  and  _45
REMARK   21  A    between atoms: _47  and  _49
REMARK   22  A    between atoms: _49  and  _50
REMARK   23  A    between atoms: _54  and  _55
REMARK   24  A    between atoms: _60  and  _62
REMARK   25  A    between atoms: _62  and  _63
REMARK   26  A    between atoms: _62  and  _65
REMARK   27  A    between atoms: _65  and  _66
REMARK   28  A    between atoms: _71  and  _72
REMARK   29  A    between atoms: _74  and  _76
REMARK   30  A    between atoms: _76  and  _77
REMARK   31  A    between atoms: _76  and  _79
REMARK   32  A    between atoms: _79  and  _80
REMARK   33  A    between atoms: _85  and  _87
REMARK   34  A    between atoms: _87  and  _88
REMARK   35  A    between atoms: _87  and  _90
REMARK   36  A    between atoms: _90  and  _91
REMARK   37  A    between atoms: _94  and  _96
REMARK   38  A    between atoms: _96  and  _97
REMARK   39  A    between atoms: _96  and  _99
REMARK   40  A    between atoms: _99  and  _100
REMARK   41  A    between atoms: _100  and  _101
REMARK   42  A    between atoms: _106  and  _108
REMARK   43  A    between atoms: _108  and  _109
REMARK   44  A    between atoms: _112  and  _114
REMARK   45  A    between atoms: _114  and  _115
REMARK   46  A    between atoms: _114  and  _117
REMARK   47  A    between atoms: _117  and  _118
REMARK   48  A    between atoms: _128  and  _130
REMARK   49  A    between atoms: _130  and  _131
REMARK   50  A    between atoms: _130  and  _133
REMARK   51  A    between atoms: _133  and  _134
REMARK   52  A    between atoms: _137  and  _139
REMARK   53  A    between atoms: _139  and  _140
REMARK   54  A    between atoms: _139  and  _142
REMARK   55  A    between atoms: _142  and  _143
REMARK   56  A    between atoms: _146  and  _148
REMARK   57  A    between atoms: _148  and  _149
REMARK   58  A    between atoms: _148  and  _151
REMARK   59  A    between atoms: _151  and  _152
REMARK   60  A    between atoms: _152  and  _153
REMARK   61  A    between atoms: _155  and  _157
REMARK   62  A    between atoms: _157  and  _158
REMARK   63  A    between atoms: _161  and  _163
REMARK   64  A    between atoms: _163  and  _164
REMARK   65  A    between atoms: _167  and  _169
REMARK   66  A    between atoms: _169  and  _170
REMARK   67  A    between atoms: _169  and  _172
REMARK   68  A    between atoms: _172  and  _173
REMARK   69  A    between atoms: _173  and  _174
REMARK   70  A    between atoms: _176  and  _178
REMARK   71  A    between atoms: _178  and  _179
REMARK   72  A    between atoms: _181  and  _183
REMARK   73  A    between atoms: _183  and  _184
REMARK   74  A    between atoms: _183  and  _186
REMARK   75  A    between atoms: _186  and  _187
REMARK   76  A    between atoms: _190  and  _192
REMARK   77  A    between atoms: _192  and  _193
REMARK   78  A    between atoms: _192  and  _195
REMARK   79  A    between atoms: _195  and  _196
REMARK   80  A    between atoms: _196  and  _197
REMARK   81  A    between atoms: _202  and  _204
REMARK   82  A    between atoms: _204  and  _205
REMARK   83  A    between atoms: _204  and  _207
REMARK   84  A    between atoms: _207  and  _208
REMARK   85  A    between atoms: _208  and  _209
REMARK   86  A    between atoms: _209  and  _210
REMARK   87  A    between atoms: _219  and  _221
REMARK   88  A    between atoms: _221  and  _222
REMARK   89  A    between atoms: _221  and  _224
REMARK   90  A    between atoms: _224  and  _225
REMARK   91  A    between atoms: _231  and  _233
REMARK   92  A    between atoms: _233  and  _234
REMARK   93  A    between atoms: _233  and  _236
REMARK   94  A    between atoms: _236  and  _237
REMARK   95  A    between atoms: _240  and  _242
REMARK   96  A    between atoms: _242  and  _243
REMARK   97  A    between atoms: _242  and  _245
REMARK   98  A    between atoms: _245  and  _246
REMARK   99  A    between atoms: _249  and  _251
REMARK  100  A    between atoms: _251  and  _252
REMARK  101  A    between atoms: _251  and  _254
REMARK  102  A    between atoms: _254  and  _255
REMARK  103  A    between atoms: _259  and  _260
REMARK  104  A    between atoms: _265  and  _267
REMARK  105  A    between atoms: _267  and  _268
REMARK  106  A    between atoms: _267  and  _270
REMARK  107  A    between atoms: _270  and  _271
REMARK  108  A    between atoms: _271  and  _272
REMARK  109  A    between atoms: _274  and  _276
REMARK  110  A    between atoms: _276  and  _277
REMARK  111  A    between atoms: _276  and  _279
REMARK  112  A    between atoms: _279  and  _280
REMARK  113  A    between atoms: _283  and  _285
REMARK  114  A    between atoms: _285  and  _286
REMARK  115  A    between atoms: _285  and  _288
REMARK  116  A    between atoms: _288  and  _289
REMARK  117  A    between atoms: _289  and  _290
REMARK  118  A    between atoms: _295  and  _297
REMARK  119  A    between atoms: _297  and  _298
REMARK  120  A    between atoms: _301  and  _303
REMARK  121  A    between atoms: _303  and  _304
REMARK  122  A    between atoms: _306  and  _308
REMARK  123  A    between atoms: _308  and  _309
REMARK  124  A    between atoms: _308  and  _311
REMARK  125  A    between atoms: _311  and  _312
REMARK  126  A    between atoms: _315  and  _317
REMARK  127  A    between atoms: _317  and  _318
REMARK  128  A    between atoms: _317  and  _320
REMARK  129  A    between atoms: _320  and  _321
REMARK  130  A    between atoms: _323  and  _325
REMARK  131  A    between atoms: _325  and  _326
REMARK  132  A    between atoms: _325  and  _328
REMARK  133  A    between atoms: _328  and  _329
REMARK  134  A    between atoms: _334  and  _336
REMARK  135  A    between atoms: _336  and  _337
REMARK  136  A    between atoms: _336  and  _339
REMARK  137  A    between atoms: _339  and  _340
REMARK  138  A    between atoms: _340  and  _341
REMARK  139  A    between atoms: _344  and  _346
REMARK  140  A    between atoms: _346  and  _347
REMARK  141  A    between atoms: _350  and  _352
REMARK  142  A    between atoms: _352  and  _353
REMARK  143  A    between atoms: _352  and  _355
REMARK  144  A    between atoms: _355  and  _356
REMARK  145  A    between atoms: _362  and  _364
REMARK  146  A    between atoms: _364  and  _365
REMARK  147  A    between atoms: _364  and  _367
REMARK  148  A    between atoms: _367  and  _368
REMARK  149  A    between atoms: _371  and  _373
REMARK  150  A    between atoms: _373  and  _374
REMARK  151  A    between atoms: _373  and  _376
REMARK  152  A    between atoms: _376  and  _377
REMARK  153  A    between atoms: _380  and  _382
REMARK  154  A    between atoms: _382  and  _383
REMARK  155  A    between atoms: _382  and  _385
REMARK  156  A    between atoms: _385  and  _386
REMARK  157  A    between atoms: _389  and  _391
REMARK  158  A    between atoms: _391  and  _392
REMARK  159  A    between atoms: _391  and  _394
REMARK  160  A    between atoms: _394  and  _395
REMARK  161  A    between atoms: _398  and  _400
REMARK  162  A    between atoms: _400  and  _401
REMARK  163  A    between atoms: _400  and  _403
REMARK  164  A    between atoms: _403  and  _404
REMARK  165  A    between atoms: _407  and  _409
REMARK  166  A    between atoms: _409  and  _410
REMARK  167  A    between atoms: _413  and  _415
REMARK  168  A    between atoms: _415  and  _416
REMARK  169  A    between atoms: _415  and  _418
REMARK  170  A    between atoms: _418  and  _419
REMARK  171  A    between atoms: _421  and  _423
REMARK  172  A    between atoms: _423  and  _424
REMARK  173  A    between atoms: _423  and  _426
REMARK  174  A    between atoms: _429  and  _431
REMARK  175  A    between atoms: _431  and  _432
REMARK  176  A    between atoms: _431  and  _434
REMARK  177  A    between atoms: _434  and  _435
REMARK  178  A    between atoms: _437  and  _439
REMARK  179  A    between atoms: _439  and  _440
REMARK  180  A    between atoms: _439  and  _442
REMARK  181  A    between atoms: _442  and  _443
REMARK  182  A    between atoms: _449  and  _451
REMARK  183  A    between atoms: _451  and  _452
REMARK  184  A    between atoms: _451  and  _454
REMARK  185  A    between atoms: _454  and  _455
REMARK  186  A    between atoms: _458  and  _460
REMARK  187  A    between atoms: _460  and  _461
REMARK  188  A    between atoms: _460  and  _463
REMARK  189  A    between atoms: _463  and  _464
REMARK  190  A    between atoms: _467  and  _469
REMARK  191  A    between atoms: _469  and  _470
REMARK  192  A    between atoms: _469  and  _472
REMARK  193  A    between atoms: _472  and  _473
REMARK  194  A    between atoms: _479  and  _481
REMARK  195  A    between atoms: _481  and  _482
REMARK  196  A    between atoms: _484  and  _486
REMARK  197  A    between atoms: _486  and  _487
REMARK  198  A    between atoms: _486  and  _489
REMARK  199  A    between atoms: _489  and  _490
REMARK  200  A    between atoms: _490  and  _491
REMARK  201  A    between atoms: _491  and  _492
REMARK  202  A    between atoms: _492  and  _493
REMARK  203  A    between atoms: _497  and  _499
REMARK  204  A    between atoms: _499  and  _500
REMARK  205  A    between atoms: _502  and  _504
REMARK  206  A    between atoms: _504  and  _505
REMARK  207  A    between atoms: _504  and  _507
REMARK  208  A    between atoms: _510  and  _512
REMARK  209  A    between atoms: _512  and  _513
REMARK  210  A    between atoms: _515  and  _517
REMARK  211  A    between atoms: _517  and  _518
REMARK  212  A    between atoms: _517  and  _520
REMARK  213  A    between atoms: _520  and  _521
REMARK                            x       y       z     vdW  Elec       q    Type
REMARK                         _______ _______ _______ _____ _____    ______ ____
ROOT
ATOM      1  O   HOH     1       4.947  23.151  15.898  0.00  0.00    +0.000 OA
ENDROOT
TORSDOF 0
REMARK  Name = ../refined-set-2016/4pow/4pow_pocket.pdb
REMARK  213 active torsions:
REMARK  status: ('A' for Active; 'I' for Inactive)
REMARK    1  A    between atoms: _1  and  _3
REMARK    2  A    between atoms: _3  and  _4
REMARK    3  A    between atoms: _3  and  _6
REMARK    4  A    between atoms: _6  and  _7
REMARK    5  A    between atoms: _10  and  _12
REMARK    6  A    between atoms: _12  and  _13
REMARK    7  A    between atoms: _12  and  _15
REMARK    8  A    between atoms: _15  and  _16
REMARK    9  A    between atoms: _16  and  _17
REMARK   10  A    between atoms: _20  and  _22
REMARK   11  A    between atoms: _22  and  _23
REMARK   12  A    between atoms: _25  and  _27
REMARK   13  A    between atoms: _27  and  _28
REMARK   14  A    between atoms: _27  and  _30
REMARK   15  A    between atoms: _30  and  _31
REMARK   16  A    between atoms: _33  and  _35
REMARK   17  A    between atoms: _35  and  _36
REMARK   18  A    between atoms: _35  and  _38
REMARK   19  A    between atoms: _38  and  _39
REMARK   20  A    between atoms: _44  and  _45
REMARK   21  A    between atoms: _47  and  _49
REMARK   22  A    between atoms: _49  and  _50
REMARK   23  A    between atoms: _54  and  _55
REMARK   24  A    between atoms: _60  and  _62
REMARK   25  A    between atoms: _62  and  _63
REMARK   26  A    between atoms: _62  and  _65
REMARK   27  A    between atoms: _65  and  _66
REMARK   28  A    between atoms: _71  and  _72
REMARK   29  A    between atoms: _74  and  _76
REMARK   30  A    between atoms: _76  and  _77
REMARK   31  A    between atoms: _76  and  _79
REMARK   32  A    between atoms: _79  and  _80
REMARK   33  A    between atoms: _85  and  _87
REMARK   34  A    between atoms: _87  and  _88
REMARK   35  A    between atoms: _87  and  _90
REMARK   36  A    between atoms: _90  and  _91
REMARK   37  A    between atoms: _94  and  _96
REMARK   38  A    between atoms: _96  and  _97
REMARK   39  A    between atoms: _96  and  _99
REMARK   40  A    between atoms: _99  and  _100
REMARK   41  A    between atoms: _100  and  _101
REMARK   42  A    between atoms: _106  and  _108
REMARK   43  A    between atoms: _108  and  _109
REMARK   44  A    between atoms: _112  and  _114
REMARK   45  A    between atoms: _114  and  _115
REMARK   46  A    between atoms: _114  and  _117
REMARK   47  A    between atoms: _117  and  _118
REMARK   48  A    between atoms: _128  and  _130
REMARK   49  A    between atoms: _130  and  _131
REMARK   50  A    between atoms: _130  and  _133
REMARK   51  A    between atoms: _133  and  _134
REMARK   52  A    between atoms: _137  and  _139
REMARK   53  A    between atoms: _139  and  _140
REMARK   54  A    between atoms: _139  and  _142
REMARK   55  A    between atoms: _142  and  _143
REMARK   56  A    between atoms: _146  and  _148
REMARK   57  A    between atoms: _148  and  _149
REMARK   58  A    between atoms: _148  and  _151
REMARK   59  A    between atoms: _151  and  _152
REMARK   60  A    between atoms: _152  and  _153
REMARK   61  A    between atoms: _155  and  _157
REMARK   62  A    between atoms: _157  and  _158
REMARK   63  A    between atoms: _161  and  _163
REMARK   64  A    between atoms: _163  and  _164
REMARK   65  A    between atoms: _167  and  _169
REMARK   66  A    between atoms: _169  and  _170
REMARK   67  A    between atoms: _169  and  _172
REMARK   68  A    between atoms: _172  and  _173
REMARK   69  A    between atoms: _173  and  _174
REMARK   70  A    between atoms: _176  and  _178
REMARK   71  A    between atoms: _178  and  _179
REMARK   72  A    between atoms: _181  and  _183
REMARK   73  A    between atoms: _183  and  _184
REMARK   74  A    between atoms: _183  and  _186
REMARK   75  A    between atoms: _186  and  _187
REMARK   76  A    between atoms: _190  and  _192
REMARK   77  A    between atoms: _192  and  _193
REMARK   78  A    between atoms: _192  and  _195
REMARK   79  A    between atoms: _195  and  _196
REMARK   80  A    between atoms: _196  and  _197
REMARK   81  A    between atoms: _202  and  _204
REMARK   82  A    between atoms: _204  and  _205
REMARK   83  A    between atoms: _204  and  _207
REMARK   84  A    between atoms: _207  and  _208
REMARK   85  A    between atoms: _208  and  _209
REMARK   86  A    between atoms: _209  and  _210
REMARK   87  A    between atoms: _219  and  _221
REMARK   88  A    between atoms: _221  and  _222
REMARK   89  A    between atoms: _221  and  _224
REMARK   90  A    between atoms: _224  and  _225
REMARK   91  A    between atoms: _231  and  _233
REMARK   92  A    between atoms: _233  and  _234
REMARK   93  A    between atoms: _233  and  _236
REMARK   94  A    between atoms: _236  and  _237
REMARK   95  A    between atoms: _240  and  _242
REMARK   96  A    between atoms: _242  and  _243
REMARK   97  A    between atoms: _242  and  _245
REMARK   98  A    between atoms: _245  and  _246
REMARK   99  A    between atoms: _249  and  _251
REMARK  100  A    between atoms: _251  and  _252
REMARK  101  A    between atoms: _251  and  _254
REMARK  102  A    between atoms: _254  and  _255
REMARK  103  A    between atoms: _259  and  _260
REMARK  104  A    between atoms: _265  and  _267
REMARK  105  A    between atoms: _267  and  _268
REMARK  106  A    between atoms: _267  and  _270
REMARK  107  A    between atoms: _270  and  _271
REMARK  108  A    between atoms: _271  and  _272
REMARK  109  A    between atoms: _274  and  _276
REMARK  110  A    between atoms: _276  and  _277
REMARK  111  A    between atoms: _276  and  _279
REMARK  112  A    between atoms: _279  and  _280
REMARK  113  A    between atoms: _283  and  _285
REMARK  114  A    between atoms: _285  and  _286
REMARK  115  A    between atoms: _285  and  _288
REMARK  116  A    between atoms: _288  and  _289
REMARK  117  A    between atoms: _289  and  _290
REMARK  118  A    between atoms: _295  and  _297
REMARK  119  A    between atoms: _297  and  _298
REMARK  120  A    between atoms: _301  and  _303
REMARK  121  A    between atoms: _303  and  _304
REMARK  122  A    between atoms: _306  and  _308
REMARK  123  A    between atoms: _308  and  _309
REMARK  124  A    between atoms: _308  and  _311
REMARK  125  A    between atoms: _311  and  _312
REMARK  126  A    between atoms: _315  and  _317
REMARK  127  A    between atoms: _317  and  _318
REMARK  128  A    between atoms: _317  and  _320
REMARK  129  A    between atoms: _320  and  _321
REMARK  130  A    between atoms: _323  and  _325
REMARK  131  A    between atoms: _325  and  _326
REMARK  132  A    between atoms: _325  and  _328
REMARK  133  A    between atoms: _328  and  _329
REMARK  134  A    between atoms: _334  and  _336
REMARK  135  A    between atoms: _336  and  _337
REMARK  136  A    between atoms: _336  and  _339
REMARK  137  A    between atoms: _339  and  _340
REMARK  138  A    between atoms: _340  and  _341
REMARK  139  A    between atoms: _344  and  _346
REMARK  140  A    between atoms: _346  and  _347
REMARK  141  A    between atoms: _350  and  _352
REMARK  142  A    between atoms: _352  and  _353
REMARK  143  A    between atoms: _352  and  _355
REMARK  144  A    between atoms: _355  and  _356
REMARK  145  A    between atoms: _362  and  _364
REMARK  146  A    between atoms: _364  and  _365
REMARK  147  A    between atoms: _364  and  _367
REMARK  148  A    between atoms: _367  and  _368
REMARK  149  A    between atoms: _371  and  _373
REMARK  150  A    between atoms: _373  and  _374
REMARK  151  A    between atoms: _373  and  _376
REMARK  152  A    between atoms: _376  and  _377
REMARK  153  A    between atoms: _380  and  _382
REMARK  154  A    between atoms: _382  and  _383
REMARK  155  A    between atoms: _382  and  _385
REMARK  156  A    between atoms: _385  and  _386
REMARK  157  A    between atoms: _389  and  _391
REMARK  158  A    between atoms: _391  and  _392
REMARK  159  A    between atoms: _391  and  _394
REMARK  160  A    between atoms: _394  and  _395
REMARK  161  A    between atoms: _398  and  _400
REMARK  162  A    between atoms: _400  and  _401
REMARK  163  A    between atoms: _400  and  _403
REMARK  164  A    between atoms: _403  and  _404
REMARK  165  A    between atoms: _407  and  _409
REMARK  166  A    between atoms: _409  and  _410
REMARK  167  A    between atoms: _413  and  _415
REMARK  168  A    between atoms: _415  and  _416
REMARK  169  A    between atoms: _415  and  _418
REMARK  170  A    between atoms: _418  and  _419
REMARK  171  A    between atoms: _421  and  _423
REMARK  172  A    between atoms: _423  and  _424
REMARK  173  A    between atoms: _423  and  _426
REMARK  174  A    between atoms: _429  and  _431
REMARK  175  A    between atoms: _431  and  _432
REMARK  176  A    between atoms: _431  and  _434
REMARK  177  A    between atoms: _434  and  _435
REMARK  178  A    between atoms: _437  and  _439
REMARK  179  A    between atoms: _439  and  _440
REMARK  180  A    between atoms: _439  and  _442
REMARK  181  A    between atoms: _442  and  _443
REMARK  182  A    between atoms: _449  and  _451
REMARK  183  A    between atoms: _451  and  _452
REMARK  184  A    between atoms: _451  and  _454
REMARK  185  A    between atoms: _454  and  _455
REMARK  186  A    between atoms: _458  and  _460
REMARK  187  A    between atoms: _460  and  _461
REMARK  188  A    between atoms: _460  and  _463
REMARK  189  A    between atoms: _463  and  _464
REMARK  190  A    between atoms: _467  and  _469
REMARK  191  A    between atoms: _469  and  _470
REMARK  192  A    between atoms: _469  and  _472
REMARK  193  A    between atoms: _472  and  _473
REMARK  194  A    between atoms: _479  and  _481
REMARK  195  A    between atoms: _481  and  _482
REMARK  196  A    between atoms: _484  and  _486
REMARK  197  A    between atoms: _486  and  _487
REMARK  198  A    between atoms: _486  and  _489
REMARK  199  A    between atoms: _489  and  _490
REMARK  200  A    between atoms: _490  and  _491
REMARK  201  A    between atoms: _491  and  _492
REMARK  202  A    between atoms: _492  and  _493
REMARK  203  A    between atoms: _497  and  _499
REMARK  204  A    between atoms: _499  and  _500
REMARK  205  A    between atoms: _502  and  _504
REMARK  206  A    between atoms: _504  and  _505
REMARK  207  A    between atoms: _504  and  _507
REMARK  208  A    between atoms: _510  and  _512
REMARK  209  A    between atoms: _512  and  _513
REMARK  210  A    between atoms: _515  and  _517
REMARK  211  A    between atoms: _517  and  _518
REMARK  212  A    between atoms: _517  and  _520
REMARK  213  A    between atoms: _520  and  _521
REMARK                            x       y       z     vdW  Elec       q    Type
REMARK                         _______ _______ _______ _____ _____    ______ ____
ROOT
ATOM      1  O   HOH     1       2.355  10.293   6.845  0.00  0.00    +0.000 OA
ENDROOT
TORSDOF 0
REMARK  Name = ../refined-set-2016/4pow/4pow_pocket.pdb
REMARK  213 active torsions:
REMARK  status: ('A' for Active; 'I' for Inactive)
REMARK    1  A    between atoms: _1  and  _3
REMARK    2  A    between atoms: _3  and  _4
REMARK    3  A    between atoms: _3  and  _6
REMARK    4  A    between atoms: _6  and  _7
REMARK    5  A    between atoms: _10  and  _12
REMARK    6  A    between atoms: _12  and  _13
REMARK    7  A    between atoms: _12  and  _15
REMARK    8  A    between atoms: _15  and  _16
REMARK    9  A    between atoms: _16  and  _17
REMARK   10  A    between atoms: _20  and  _22
REMARK   11  A    between atoms: _22  and  _23
REMARK   12  A    between atoms: _25  and  _27
REMARK   13  A    between atoms: _27  and  _28
REMARK   14  A    between atoms: _27  and  _30
REMARK   15  A    between atoms: _30  and  _31
REMARK   16  A    between atoms: _33  and  _35
REMARK   17  A    between atoms: _35  and  _36
REMARK   18  A    between atoms: _35  and  _38
REMARK   19  A    between atoms: _38  and  _39
REMARK   20  A    between atoms: _44  and  _45
REMARK   21  A    between atoms: _47  and  _49
REMARK   22  A    between atoms: _49  and  _50
REMARK   23  A    between atoms: _54  and  _55
REMARK   24  A    between atoms: _60  and  _62
REMARK   25  A    between atoms: _62  and  _63
REMARK   26  A    between atoms: _62  and  _65
REMARK   27  A    between atoms: _65  and  _66
REMARK   28  A    between atoms: _71  and  _72
REMARK   29  A    between atoms: _74  and  _76
REMARK   30  A    between atoms: _76  and  _77
REMARK   31  A    between atoms: _76  and  _79
REMARK   32  A    between atoms: _79  and  _80
REMARK   33  A    between atoms: _85  and  _87
REMARK   34  A    between atoms: _87  and  _88
REMARK   35  A    between atoms: _87  and  _90
REMARK   36  A    between atoms: _90  and  _91
REMARK   37  A    between atoms: _94  and  _96
REMARK   38  A    between atoms: _96  and  _97
REMARK   39  A    between atoms: _96  and  _99
REMARK   40  A    between atoms: _99  and  _100
REMARK   41  A    between atoms: _100  and  _101
REMARK   42  A    between atoms: _106  and  _108
REMARK   43  A    between atoms: _108  and  _109
REMARK   44  A    between atoms: _112  and  _114
REMARK   45  A    between atoms: _114  and  _115
REMARK   46  A    between atoms: _114  and  _117
REMARK   47  A    between atoms: _117  and  _118
REMARK   48  A    between atoms: _128  and  _130
REMARK   49  A    between atoms: _130  and  _131
REMARK   50  A    between atoms: _130  and  _133
REMARK   51  A    between atoms: _133  and  _134
REMARK   52  A    between atoms: _137  and  _139
REMARK   53  A    between atoms: _139  and  _140
REMARK   54  A    between atoms: _139  and  _142
REMARK   55  A    between atoms: _142  and  _143
REMARK   56  A    between atoms: _146  and  _148
REMARK   57  A    between atoms: _148  and  _149
REMARK   58  A    between atoms: _148  and  _151
REMARK   59  A    between atoms: _151  and  _152
REMARK   60  A    between atoms: _152  and  _153
REMARK   61  A    between atoms: _155  and  _157
REMARK   62  A    between atoms: _157  and  _158
REMARK   63  A    between atoms: _161  and  _163
REMARK   64  A    between atoms: _163  and  _164
REMARK   65  A    between atoms: _167  and  _169
REMARK   66  A    between atoms: _169  and  _170
REMARK   67  A    between atoms: _169  and  _172
REMARK   68  A    between atoms: _172  and  _173
REMARK   69  A    between atoms: _173  and  _174
REMARK   70  A    between atoms: _176  and  _178
REMARK   71  A    between atoms: _178  and  _179
REMARK   72  A    between atoms: _181  and  _183
REMARK   73  A    between atoms: _183  and  _184
REMARK   74  A    between atoms: _183  and  _186
REMARK   75  A    between atoms: _186  and  _187
REMARK   76  A    between atoms: _190  and  _192
REMARK   77  A    between atoms: _192  and  _193
REMARK   78  A    between atoms: _192  and  _195
REMARK   79  A    between atoms: _195  and  _196
REMARK   80  A    between atoms: _196  and  _197
REMARK   81  A    between atoms: _202  and  _204
REMARK   82  A    between atoms: _204  and  _205
REMARK   83  A    between atoms: _204  and  _207
REMARK   84  A    between atoms: _207  and  _208
REMARK   85  A    between atoms: _208  and  _209
REMARK   86  A    between atoms: _209  and  _210
REMARK   87  A    between atoms: _219  and  _221
REMARK   88  A    between atoms: _221  and  _222
REMARK   89  A    between atoms: _221  and  _224
REMARK   90  A    between atoms: _224  and  _225
REMARK   91  A    between atoms: _231  and  _233
REMARK   92  A    between atoms: _233  and  _234
REMARK   93  A    between atoms: _233  and  _236
REMARK   94  A    between atoms: _236  and  _237
REMARK   95  A    between atoms: _240  and  _242
REMARK   96  A    between atoms: _242  and  _243
REMARK   97  A    between atoms: _242  and  _245
REMARK   98  A    between atoms: _245  and  _246
REMARK   99  A    between atoms: _249  and  _251
REMARK  100  A    between atoms: _251  and  _252
REMARK  101  A    between atoms: _251  and  _254
REMARK  102  A    between atoms: _254  and  _255
REMARK  103  A    between atoms: _259  and  _260
REMARK  104  A    between atoms: _265  and  _267
REMARK  105  A    between atoms: _267  and  _268
REMARK  106  A    between atoms: _267  and  _270
REMARK  107  A    between atoms: _270  and  _271
REMARK  108  A    between atoms: _271  and  _272
REMARK  109  A    between atoms: _274  and  _276
REMARK  110  A    between atoms: _276  and  _277
REMARK  111  A    between atoms: _276  and  _279
REMARK  112  A    between atoms: _279  and  _280
REMARK  113  A    between atoms: _283  and  _285
REMARK  114  A    between atoms: _285  and  _286
REMARK  115  A    between atoms: _285  and  _288
REMARK  116  A    between atoms: _288  and  _289
REMARK  117  A    between atoms: _289  and  _290
REMARK  118  A    between atoms: _295  and  _297
REMARK  119  A    between atoms: _297  and  _298
REMARK  120  A    between atoms: _301  and  _303
REMARK  121  A    between atoms: _303  and  _304
REMARK  122  A    between atoms: _306  and  _308
REMARK  123  A    between atoms: _308  and  _309
REMARK  124  A    between atoms: _308  and  _311
REMARK  125  A    between atoms: _311  and  _312
REMARK  126  A    between atoms: _315  and  _317
REMARK  127  A    between atoms: _317  and  _318
REMARK  128  A    between atoms: _317  and  _320
REMARK  129  A    between atoms: _320  and  _321
REMARK  130  A    between atoms: _323  and  _325
REMARK  131  A    between atoms: _325  and  _326
REMARK  132  A    between atoms: _325  and  _328
REMARK  133  A    between atoms: _328  and  _329
REMARK  134  A    between atoms: _334  and  _336
REMARK  135  A    between atoms: _336  and  _337
REMARK  136  A    between atoms: _336  and  _339
REMARK  137  A    between atoms: _339  and  _340
REMARK  138  A    between atoms: _340  and  _341
REMARK  139  A    between atoms: _344  and  _346
REMARK  140  A    between atoms: _346  and  _347
REMARK  141  A    between atoms: _350  and  _352
REMARK  142  A    between atoms: _352  and  _353
REMARK  143  A    between atoms: _352  and  _355
REMARK  144  A    between atoms: _355  and  _356
REMARK  145  A    between atoms: _362  and  _364
REMARK  146  A    between atoms: _364  and  _365
REMARK  147  A    between atoms: _364  and  _367
REMARK  148  A    between atoms: _367  and  _368
REMARK  149  A    between atoms: _371  and  _373
REMARK  150  A    between atoms: _373  and  _374
REMARK  151  A    between atoms: _373  and  _376
REMARK  152  A    between atoms: _376  and  _377
REMARK  153  A    between atoms: _380  and  _382
REMARK  154  A    between atoms: _382  and  _383
REMARK  155  A    between atoms: _382  and  _385
REMARK  156  A    between atoms: _385  and  _386
REMARK  157  A    between atoms: _389  and  _391
REMARK  158  A    between atoms: _391  and  _392
REMARK  159  A    between atoms: _391  and  _394
REMARK  160  A    between atoms: _394  and  _395
REMARK  161  A    between atoms: _398  and  _400
REMARK  162  A    between atoms: _400  and  _401
REMARK  163  A    between atoms: _400  and  _403
REMARK  164  A    between atoms: _403  and  _404
REMARK  165  A    between atoms: _407  and  _409
REMARK  166  A    between atoms: _409  and  _410
REMARK  167  A    between atoms: _413  and  _415
REMARK  168  A    between atoms: _415  and  _416
REMARK  169  A    between atoms: _415  and  _418
REMARK  170  A    between atoms: _418  and  _419
REMARK  171  A    between atoms: _421  and  _423
REMARK  172  A    between atoms: _423  and  _424
REMARK  173  A    between atoms: _423  and  _426
REMARK  174  A    between atoms: _429  and  _431
REMARK  175  A    between atoms: _431  and  _432
REMARK  176  A    between atoms: _431  and  _434
REMARK  177  A    between atoms: _434  and  _435
REMARK  178  A    between atoms: _437  and  _439
REMARK  179  A    between atoms: _439  and  _440
REMARK  180  A    between atoms: _439  and  _442
REMARK  181  A    between atoms: _442  and  _443
REMARK  182  A    between atoms: _449  and  _451
REMARK  183  A    between atoms: _451  and  _452
REMARK  184  A    between atoms: _451  and  _454
REMARK  185  A    between atoms: _454  and  _455
REMARK  186  A    between atoms: _458  and  _460
REMARK  187  A    between atoms: _460  and  _461
REMARK  188  A    between atoms: _460  and  _463
REMARK  189  A    between atoms: _463  and  _464
REMARK  190  A    between atoms: _467  and  _469
REMARK  191  A    between atoms: _469  and  _470
REMARK  192  A    between atoms: _469  and  _472
REMARK  193  A    between atoms: _472  and  _473
REMARK  194  A    between atoms: _479  and  _481
REMARK  195  A    between atoms: _481  and  _482
REMARK  196  A    between atoms: _484  and  _486
REMARK  197  A    between atoms: _486  and  _487
REMARK  198  A    between atoms: _486  and  _489
REMARK  199  A    between atoms: _489  and  _490
REMARK  200  A    between atoms: _490  and  _491
REMARK  201  A    between atoms: _491  and  _492
REMARK  202  A    between atoms: _492  and  _493
REMARK  203  A    between atoms: _497  and  _499
REMARK  204  A    between atoms: _499  and  _500
REMARK  205  A    between atoms: _502  and  _504
REMARK  206  A    between atoms: _504  and  _505
REMARK  207  A    between atoms: _504  and  _507
REMARK  208  A    between atoms: _510  and  _512
REMARK  209  A    between atoms: _512  and  _513
REMARK  210  A    between atoms: _515  and  _517
REMARK  211  A    between atoms: _517  and  _518
REMARK  212  A    between atoms: _517  and  _520
REMARK  213  A    between atoms: _520  and  _521
REMARK                            x       y       z     vdW  Elec       q    Type
REMARK                         _______ _______ _______ _____ _____    ______ ____
ROOT
ATOM      1  O   HOH     1      -1.699  15.015   7.807  0.00  0.00    +0.000 OA
ENDROOT
TORSDOF 0
REMARK  Name = ../refined-set-2016/4pow/4pow_pocket.pdb
REMARK  213 active torsions:
REMARK  status: ('A' for Active; 'I' for Inactive)
REMARK    1  A    between atoms: _1  and  _3
REMARK    2  A    between atoms: _3  and  _4
REMARK    3  A    between atoms: _3  and  _6
REMARK    4  A    between atoms: _6  and  _7
REMARK    5  A    between atoms: _10  and  _12
REMARK    6  A    between atoms: _12  and  _13
REMARK    7  A    between atoms: _12  and  _15
REMARK    8  A    between atoms: _15  and  _16
REMARK    9  A    between atoms: _16  and  _17
REMARK   10  A    between atoms: _20  and  _22
REMARK   11  A    between atoms: _22  and  _23
REMARK   12  A    between atoms: _25  and  _27
REMARK   13  A    between atoms: _27  and  _28
REMARK   14  A    between atoms: _27  and  _30
REMARK   15  A    between atoms: _30  and  _31
REMARK   16  A    between atoms: _33  and  _35
REMARK   17  A    between atoms: _35  and  _36
REMARK   18  A    between atoms: _35  and  _38
REMARK   19  A    between atoms: _38  and  _39
REMARK   20  A    between atoms: _44  and  _45
REMARK   21  A    between atoms: _47  and  _49
REMARK   22  A    between atoms: _49  and  _50
REMARK   23  A    between atoms: _54  and  _55
REMARK   24  A    between atoms: _60  and  _62
REMARK   25  A    between atoms: _62  and  _63
REMARK   26  A    between atoms: _62  and  _65
REMARK   27  A    between atoms: _65  and  _66
REMARK   28  A    between atoms: _71  and  _72
REMARK   29  A    between atoms: _74  and  _76
REMARK   30  A    between atoms: _76  and  _77
REMARK   31  A    between atoms: _76  and  _79
REMARK   32  A    between atoms: _79  and  _80
REMARK   33  A    between atoms: _85  and  _87
REMARK   34  A    between atoms: _87  and  _88
REMARK   35  A    between atoms: _87  and  _90
REMARK   36  A    between atoms: _90  and  _91
REMARK   37  A    between atoms: _94  and  _96
REMARK   38  A    between atoms: _96  and  _97
REMARK   39  A    between atoms: _96  and  _99
REMARK   40  A    between atoms: _99  and  _100
REMARK   41  A    between atoms: _100  and  _101
REMARK   42  A    between atoms: _106  and  _108
REMARK   43  A    between atoms: _108  and  _109
REMARK   44  A    between atoms: _112  and  _114
REMARK   45  A    between atoms: _114  and  _115
REMARK   46  A    between atoms: _114  and  _117
REMARK   47  A    between atoms: _117  and  _118
REMARK   48  A    between atoms: _128  and  _130
REMARK   49  A    between atoms: _130  and  _131
REMARK   50  A    between atoms: _130  and  _133
REMARK   51  A    between atoms: _133  and  _134
REMARK   52  A    between atoms: _137  and  _139
REMARK   53  A    between atoms: _139  and  _140
REMARK   54  A    between atoms: _139  and  _142
REMARK   55  A    between atoms: _142  and  _143
REMARK   56  A    between atoms: _146  and  _148
REMARK   57  A    between atoms: _148  and  _149
REMARK   58  A    between atoms: _148  and  _151
REMARK   59  A    between atoms: _151  and  _152
REMARK   60  A    between atoms: _152  and  _153
REMARK   61  A    between atoms: _155  and  _157
REMARK   62  A    between atoms: _157  and  _158
REMARK   63  A    between atoms: _161  and  _163
REMARK   64  A    between atoms: _163  and  _164
REMARK   65  A    between atoms: _167  and  _169
REMARK   66  A    between atoms: _169  and  _170
REMARK   67  A    between atoms: _169  and  _172
REMARK   68  A    between atoms: _172  and  _173
REMARK   69  A    between atoms: _173  and  _174
REMARK   70  A    between atoms: _176  and  _178
REMARK   71  A    between atoms: _178  and  _179
REMARK   72  A    between atoms: _181  and  _183
REMARK   73  A    between atoms: _183  and  _184
REMARK   74  A    between atoms: _183  and  _186
REMARK   75  A    between atoms: _186  and  _187
REMARK   76  A    between atoms: _190  and  _192
REMARK   77  A    between atoms: _192  and  _193
REMARK   78  A    between atoms: _192  and  _195
REMARK   79  A    between atoms: _195  and  _196
REMARK   80  A    between atoms: _196  and  _197
REMARK   81  A    between atoms: _202  and  _204
REMARK   82  A    between atoms: _204  and  _205
REMARK   83  A    between atoms: _204  and  _207
REMARK   84  A    between atoms: _207  and  _208
REMARK   85  A    between atoms: _208  and  _209
REMARK   86  A    between atoms: _209  and  _210
REMARK   87  A    between atoms: _219  and  _221
REMARK   88  A    between atoms: _221  and  _222
REMARK   89  A    between atoms: _221  and  _224
REMARK   90  A    between atoms: _224  and  _225
REMARK   91  A    between atoms: _231  and  _233
REMARK   92  A    between atoms: _233  and  _234
REMARK   93  A    between atoms: _233  and  _236
REMARK   94  A    between atoms: _236  and  _237
REMARK   95  A    between atoms: _240  and  _242
REMARK   96  A    between atoms: _242  and  _243
REMARK   97  A    between atoms: _242  and  _245
REMARK   98  A    between atoms: _245  and  _246
REMARK   99  A    between atoms: _249  and  _251
REMARK  100  A    between atoms: _251  and  _252
REMARK  101  A    between atoms: _251  and  _254
REMARK  102  A    between atoms: _254  and  _255
REMARK  103  A    between atoms: _259  and  _260
REMARK  104  A    between atoms: _265  and  _267
REMARK  105  A    between atoms: _267  and  _268
REMARK  106  A    between atoms: _267  and  _270
REMARK  107  A    between atoms: _270  and  _271
REMARK  108  A    between atoms: _271  and  _272
REMARK  109  A    between atoms: _274  and  _276
REMARK  110  A    between atoms: _276  and  _277
REMARK  111  A    between atoms: _276  and  _279
REMARK  112  A    between atoms: _279  and  _280
REMARK  113  A    between atoms: _283  and  _285
REMARK  114  A    between atoms: _285  and  _286
REMARK  115  A    between atoms: _285  and  _288
REMARK  116  A    between atoms: _288  and  _289
REMARK  117  A    between atoms: _289  and  _290
REMARK  118  A    between atoms: _295  and  _297
REMARK  119  A    between atoms: _297  and  _298
REMARK  120  A    between atoms: _301  and  _303
REMARK  121  A    between atoms: _303  and  _304
REMARK  122  A    between atoms: _306  and  _308
REMARK  123  A    between atoms: _308  and  _309
REMARK  124  A    between atoms: _308  and  _311
REMARK  125  A    between atoms: _311  and  _312
REMARK  126  A    between atoms: _315  and  _317
REMARK  127  A    between atoms: _317  and  _318
REMARK  128  A    between atoms: _317  and  _320
REMARK  129  A    between atoms: _320  and  _321
REMARK  130  A    between atoms: _323  and  _325
REMARK  131  A    between atoms: _325  and  _326
REMARK  132  A    between atoms: _325  and  _328
REMARK  133  A    between atoms: _328  and  _329
REMARK  134  A    between atoms: _334  and  _336
REMARK  135  A    between atoms: _336  and  _337
REMARK  136  A    between atoms: _336  and  _339
REMARK  137  A    between atoms: _339  and  _340
REMARK  138  A    between atoms: _340  and  _341
REMARK  139  A    between atoms: _344  and  _346
REMARK  140  A    between atoms: _346  and  _347
REMARK  141  A    between atoms: _350  and  _352
REMARK  142  A    between atoms: _352  and  _353
REMARK  143  A    between atoms: _352  and  _355
REMARK  144  A    between atoms: _355  and  _356
REMARK  145  A    between atoms: _362  and  _364
REMARK  146  A    between atoms: _364  and  _365
REMARK  147  A    between atoms: _364  and  _367
REMARK  148  A    between atoms: _367  and  _368
REMARK  149  A    between atoms: _371  and  _373
REMARK  150  A    between atoms: _373  and  _374
REMARK  151  A    between atoms: _373  and  _376
REMARK  152  A    between atoms: _376  and  _377
REMARK  153  A    between atoms: _380  and  _382
REMARK  154  A    between atoms: _382  and  _383
REMARK  155  A    between atoms: _382  and  _385
REMARK  156  A    between atoms: _385  and  _386
REMARK  157  A    between atoms: _389  and  _391
REMARK  158  A    between atoms: _391  and  _392
REMARK  159  A    between atoms: _391  and  _394
REMARK  160  A    between atoms: _394  and  _395
REMARK  161  A    between atoms: _398  and  _400
REMARK  162  A    between atoms: _400  and  _401
REMARK  163  A    between atoms: _400  and  _403
REMARK  164  A    between atoms: _403  and  _404
REMARK  165  A    between atoms: _407  and  _409
REMARK  166  A    between atoms: _409  and  _410
REMARK  167  A    between atoms: _413  and  _415
REMARK  168  A    between atoms: _415  and  _416
REMARK  169  A    between atoms: _415  and  _418
REMARK  170  A    between atoms: _418  and  _419
REMARK  171  A    between atoms: _421  and  _423
REMARK  172  A    between atoms: _423  and  _424
REMARK  173  A    between atoms: _423  and  _426
REMARK  174  A    between atoms: _429  and  _431
REMARK  175  A    between atoms: _431  and  _432
REMARK  176  A    between atoms: _431  and  _434
REMARK  177  A    between atoms: _434  and  _435
REMARK  178  A    between atoms: _437  and  _439
REMARK  179  A    between atoms: _439  and  _440
REMARK  180  A    between atoms: _439  and  _442
REMARK  181  A    between atoms: _442  and  _443
REMARK  182  A    between atoms: _449  and  _451
REMARK  183  A    between atoms: _451  and  _452
REMARK  184  A    between atoms: _451  and  _454
REMARK  185  A    between atoms: _454  and  _455
REMARK  186  A    between atoms: _458  and  _460
REMARK  187  A    between atoms: _460  and  _461
REMARK  188  A    between atoms: _460  and  _463
REMARK  189  A    between atoms: _463  and  _464
REMARK  190  A    between atoms: _467  and  _469
REMARK  191  A    between atoms: _469  and  _470
REMARK  192  A    between atoms: _469  and  _472
REMARK  193  A    between atoms: _472  and  _473
REMARK  194  A    between atoms: _479  and  _481
REMARK  195  A    between atoms: _481  and  _482
REMARK  196  A    between atoms: _484  and  _486
REMARK  197  A    between atoms: _486  and  _487
REMARK  198  A    between atoms: _486  and  _489
REMARK  199  A    between atoms: _489  and  _490
REMARK  200  A    between atoms: _490  and  _491
REMARK  201  A    between atoms: _491  and  _492
REMARK  202  A    between atoms: _492  and  _493
REMARK  203  A    between atoms: _497  and  _499
REMARK  204  A    between atoms: _499  and  _500
REMARK  205  A    between atoms: _502  and  _504
REMARK  206  A    between atoms: _504  and  _505
REMARK  207  A    between atoms: _504  and  _507
REMARK  208  A    between atoms: _510  and  _512
REMARK  209  A    between atoms: _512  and  _513
REMARK  210  A    between atoms: _515  and  _517
REMARK  211  A    between atoms: _517  and  _518
REMARK  212  A    between atoms: _517  and  _520
REMARK  213  A    between atoms: _520  and  _521
REMARK                            x       y       z     vdW  Elec       q    Type
REMARK                         _______ _______ _______ _____ _____    ______ ____
ROOT
ATOM      1  O   HOH     1       0.022  18.190  -2.746  0.00  0.00    +0.000 OA
ENDROOT
TORSDOF 0
REMARK  Name = ../refined-set-2016/4pow/4pow_pocket.pdb
REMARK  213 active torsions:
REMARK  status: ('A' for Active; 'I' for Inactive)
REMARK    1  A    between atoms: _1  and  _3
REMARK    2  A    between atoms: _3  and  _4
REMARK    3  A    between atoms: _3  and  _6
REMARK    4  A    between atoms: _6  and  _7
REMARK    5  A    between atoms: _10  and  _12
REMARK    6  A    between atoms: _12  and  _13
REMARK    7  A    between atoms: _12  and  _15
REMARK    8  A    between atoms: _15  and  _16
REMARK    9  A    between atoms: _16  and  _17
REMARK   10  A    between atoms: _20  and  _22
REMARK   11  A    between atoms: _22  and  _23
REMARK   12  A    between atoms: _25  and  _27
REMARK   13  A    between atoms: _27  and  _28
REMARK   14  A    between atoms: _27  and  _30
REMARK   15  A    between atoms: _30  and  _31
REMARK   16  A    between atoms: _33  and  _35
REMARK   17  A    between atoms: _35  and  _36
REMARK   18  A    between atoms: _35  and  _38
REMARK   19  A    between atoms: _38  and  _39
REMARK   20  A    between atoms: _44  and  _45
REMARK   21  A    between atoms: _47  and  _49
REMARK   22  A    between atoms: _49  and  _50
REMARK   23  A    between atoms: _54  and  _55
REMARK   24  A    between atoms: _60  and  _62
REMARK   25  A    between atoms: _62  and  _63
REMARK   26  A    between atoms: _62  and  _65
REMARK   27  A    between atoms: _65  and  _66
REMARK   28  A    between atoms: _71  and  _72
REMARK   29  A    between atoms: _74  and  _76
REMARK   30  A    between atoms: _76  and  _77
REMARK   31  A    between atoms: _76  and  _79
REMARK   32  A    between atoms: _79  and  _80
REMARK   33  A    between atoms: _85  and  _87
REMARK   34  A    between atoms: _87  and  _88
REMARK   35  A    between atoms: _87  and  _90
REMARK   36  A    between atoms: _90  and  _91
REMARK   37  A    between atoms: _94  and  _96
REMARK   38  A    between atoms: _96  and  _97
REMARK   39  A    between atoms: _96  and  _99
REMARK   40  A    between atoms: _99  and  _100
REMARK   41  A    between atoms: _100  and  _101
REMARK   42  A    between atoms: _106  and  _108
REMARK   43  A    between atoms: _108  and  _109
REMARK   44  A    between atoms: _112  and  _114
REMARK   45  A    between atoms: _114  and  _115
REMARK   46  A    between atoms: _114  and  _117
REMARK   47  A    between atoms: _117  and  _118
REMARK   48  A    between atoms: _128  and  _130
REMARK   49  A    between atoms: _130  and  _131
REMARK   50  A    between atoms: _130  and  _133
REMARK   51  A    between atoms: _133  and  _134
REMARK   52  A    between atoms: _137  and  _139
REMARK   53  A    between atoms: _139  and  _140
REMARK   54  A    between atoms: _139  and  _142
REMARK   55  A    between atoms: _142  and  _143
REMARK   56  A    between atoms: _146  and  _148
REMARK   57  A    between atoms: _148  and  _149
REMARK   58  A    between atoms: _148  and  _151
REMARK   59  A    between atoms: _151  and  _152
REMARK   60  A    between atoms: _152  and  _153
REMARK   61  A    between atoms: _155  and  _157
REMARK   62  A    between atoms: _157  and  _158
REMARK   63  A    between atoms: _161  and  _163
REMARK   64  A    between atoms: _163  and  _164
REMARK   65  A    between atoms: _167  and  _169
REMARK   66  A    between atoms: _169  and  _170
REMARK   67  A    between atoms: _169  and  _172
REMARK   68  A    between atoms: _172  and  _173
REMARK   69  A    between atoms: _173  and  _174
REMARK   70  A    between atoms: _176  and  _178
REMARK   71  A    between atoms: _178  and  _179
REMARK   72  A    between atoms: _181  and  _183
REMARK   73  A    between atoms: _183  and  _184
REMARK   74  A    between atoms: _183  and  _186
REMARK   75  A    between atoms: _186  and  _187
REMARK   76  A    between atoms: _190  and  _192
REMARK   77  A    between atoms: _192  and  _193
REMARK   78  A    between atoms: _192  and  _195
REMARK   79  A    between atoms: _195  and  _196
REMARK   80  A    between atoms: _196  and  _197
REMARK   81  A    between atoms: _202  and  _204
REMARK   82  A    between atoms: _204  and  _205
REMARK   83  A    between atoms: _204  and  _207
REMARK   84  A    between atoms: _207  and  _208
REMARK   85  A    between atoms: _208  and  _209
REMARK   86  A    between atoms: _209  and  _210
REMARK   87  A    between atoms: _219  and  _221
REMARK   88  A    between atoms: _221  and  _222
REMARK   89  A    between atoms: _221  and  _224
REMARK   90  A    between atoms: _224  and  _225
REMARK   91  A    between atoms: _231  and  _233
REMARK   92  A    between atoms: _233  and  _234
REMARK   93  A    between atoms: _233  and  _236
REMARK   94  A    between atoms: _236  and  _237
REMARK   95  A    between atoms: _240  and  _242
REMARK   96  A    between atoms: _242  and  _243
REMARK   97  A    between atoms: _242  and  _245
REMARK   98  A    between atoms: _245  and  _246
REMARK   99  A    between atoms: _249  and  _251
REMARK  100  A    between atoms: _251  and  _252
REMARK  101  A    between atoms: _251  and  _254
REMARK  102  A    between atoms: _254  and  _255
REMARK  103  A    between atoms: _259  and  _260
REMARK  104  A    between atoms: _265  and  _267
REMARK  105  A    between atoms: _267  and  _268
REMARK  106  A    between atoms: _267  and  _270
REMARK  107  A    between atoms: _270  and  _271
REMARK  108  A    between atoms: _271  and  _272
REMARK  109  A    between atoms: _274  and  _276
REMARK  110  A    between atoms: _276  and  _277
REMARK  111  A    between atoms: _276  and  _279
REMARK  112  A    between atoms: _279  and  _280
REMARK  113  A    between atoms: _283  and  _285
REMARK  114  A    between atoms: _285  and  _286
REMARK  115  A    between atoms: _285  and  _288
REMARK  116  A    between atoms: _288  and  _289
REMARK  117  A    between atoms: _289  and  _290
REMARK  118  A    between atoms: _295  and  _297
REMARK  119  A    between atoms: _297  and  _298
REMARK  120  A    between atoms: _301  and  _303
REMARK  121  A    between atoms: _303  and  _304
REMARK  122  A    between atoms: _306  and  _308
REMARK  123  A    between atoms: _308  and  _309
REMARK  124  A    between atoms: _308  and  _311
REMARK  125  A    between atoms: _311  and  _312
REMARK  126  A    between atoms: _315  and  _317
REMARK  127  A    between atoms: _317  and  _318
REMARK  128  A    between atoms: _317  and  _320
REMARK  129  A    between atoms: _320  and  _321
REMARK  130  A    between atoms: _323  and  _325
REMARK  131  A    between atoms: _325  and  _326
REMARK  132  A    between atoms: _325  and  _328
REMARK  133  A    between atoms: _328  and  _329
REMARK  134  A    between atoms: _334  and  _336
REMARK  135  A    between atoms: _336  and  _337
REMARK  136  A    between atoms: _336  and  _339
REMARK  137  A    between atoms: _339  and  _340
REMARK  138  A    between atoms: _340  and  _341
REMARK  139  A    between atoms: _344  and  _346
REMARK  140  A    between atoms: _346  and  _347
REMARK  141  A    between atoms: _350  and  _352
REMARK  142  A    between atoms: _352  and  _353
REMARK  143  A    between atoms: _352  and  _355
REMARK  144  A    between atoms: _355  and  _356
REMARK  145  A    between atoms: _362  and  _364
REMARK  146  A    between atoms: _364  and  _365
REMARK  147  A    between atoms: _364  and  _367
REMARK  148  A    between atoms: _367  and  _368
REMARK  149  A    between atoms: _371  and  _373
REMARK  150  A    between atoms: _373  and  _374
REMARK  151  A    between atoms: _373  and  _376
REMARK  152  A    between atoms: _376  and  _377
REMARK  153  A    between atoms: _380  and  _382
REMARK  154  A    between atoms: _382  and  _383
REMARK  155  A    between atoms: _382  and  _385
REMARK  156  A    between atoms: _385  and  _386
REMARK  157  A    between atoms: _389  and  _391
REMARK  158  A    between atoms: _391  and  _392
REMARK  159  A    between atoms: _391  and  _394
REMARK  160  A    between atoms: _394  and  _395
REMARK  161  A    between atoms: _398  and  _400
REMARK  162  A    between atoms: _400  and  _401
REMARK  163  A    between atoms: _400  and  _403
REMARK  164  A    between atoms: _403  and  _404
REMARK  165  A    between atoms: _407  and  _409
REMARK  166  A    between atoms: _409  and  _410
REMARK  167  A    between atoms: _413  and  _415
REMARK  168  A    between atoms: _415  and  _416
REMARK  169  A    between atoms: _415  and  _418
REMARK  170  A    between atoms: _418  and  _419
REMARK  171  A    between atoms: _421  and  _423
REMARK  172  A    between atoms: _423  and  _424
REMARK  173  A    between atoms: _423  and  _426
REMARK  174  A    between atoms: _429  and  _431
REMARK  175  A    between atoms: _431  and  _432
REMARK  176  A    between atoms: _431  and  _434
REMARK  177  A    between atoms: _434  and  _435
REMARK  178  A    between atoms: _437  and  _439
REMARK  179  A    between atoms: _439  and  _440
REMARK  180  A    between atoms: _439  and  _442
REMARK  181  A    between atoms: _442  and  _443
REMARK  182  A    between atoms: _449  and  _451
REMARK  183  A    between atoms: _451  and  _452
REMARK  184  A    between atoms: _451  and  _454
REMARK  185  A    between atoms: _454  and  _455
REMARK  186  A    between atoms: _458  and  _460
REMARK  187  A    between atoms: _460  and  _461
REMARK  188  A    between atoms: _460  and  _463
REMARK  189  A    between atoms: _463  and  _464
REMARK  190  A    between atoms: _467  and  _469
REMARK  191  A    between atoms: _469  and  _470
REMARK  192  A    between atoms: _469  and  _472
REMARK  193  A    between atoms: _472  and  _473
REMARK  194  A    between atoms: _479  and  _481
REMARK  195  A    between atoms: _481  and  _482
REMARK  196  A    between atoms: _484  and  _486
REMARK  197  A    between atoms: _486  and  _487
REMARK  198  A    between atoms: _486  and  _489
REMARK  199  A    between atoms: _489  and  _490
REMARK  200  A    between atoms: _490  and  _491
REMARK  201  A    between atoms: _491  and  _492
REMARK  202  A    between atoms: _492  and  _493
REMARK  203  A    between atoms: _497  and  _499
REMARK  204  A    between atoms: _499  and  _500
REMARK  205  A    between atoms: _502  and  _504
REMARK  206  A    between atoms: _504  and  _505
REMARK  207  A    between atoms: _504  and  _507
REMARK  208  A    between atoms: _510  and  _512
REMARK  209  A    between atoms: _512  and  _513
REMARK  210  A    between atoms: _515  and  _517
REMARK  211  A    between atoms: _517  and  _518
REMARK  212  A    between atoms: _517  and  _520
REMARK  213  A    between atoms: _520  and  _521
REMARK                            x       y       z     vdW  Elec       q    Type
REMARK                         _______ _______ _______ _____ _____    ______ ____
ROOT
ATOM      1  O   HOH     1      -0.051  12.491   5.893  0.00  0.00    +0.000 OA
ENDROOT
TORSDOF 0
REMARK  Name = ../refined-set-2016/4pow/4pow_pocket.pdb
REMARK  213 active torsions:
REMARK  status: ('A' for Active; 'I' for Inactive)
REMARK    1  A    between atoms: _1  and  _3
REMARK    2  A    between atoms: _3  and  _4
REMARK    3  A    between atoms: _3  and  _6
REMARK    4  A    between atoms: _6  and  _7
REMARK    5  A    between atoms: _10  and  _12
REMARK    6  A    between atoms: _12  and  _13
REMARK    7  A    between atoms: _12  and  _15
REMARK    8  A    between atoms: _15  and  _16
REMARK    9  A    between atoms: _16  and  _17
REMARK   10  A    between atoms: _20  and  _22
REMARK   11  A    between atoms: _22  and  _23
REMARK   12  A    between atoms: _25  and  _27
REMARK   13  A    between atoms: _27  and  _28
REMARK   14  A    between atoms: _27  and  _30
REMARK   15  A    between atoms: _30  and  _31
REMARK   16  A    between atoms: _33  and  _35
REMARK   17  A    between atoms: _35  and  _36
REMARK   18  A    between atoms: _35  and  _38
REMARK   19  A    between atoms: _38  and  _39
REMARK   20  A    between atoms: _44  and  _45
REMARK   21  A    between atoms: _47  and  _49
REMARK   22  A    between atoms: _49  and  _50
REMARK   23  A    between atoms: _54  and  _55
REMARK   24  A    between atoms: _60  and  _62
REMARK   25  A    between atoms: _62  and  _63
REMARK   26  A    between atoms: _62  and  _65
REMARK   27  A    between atoms: _65  and  _66
REMARK   28  A    between atoms: _71  and  _72
REMARK   29  A    between atoms: _74  and  _76
REMARK   30  A    between atoms: _76  and  _77
REMARK   31  A    between atoms: _76  and  _79
REMARK   32  A    between atoms: _79  and  _80
REMARK   33  A    between atoms: _85  and  _87
REMARK   34  A    between atoms: _87  and  _88
REMARK   35  A    between atoms: _87  and  _90
REMARK   36  A    between atoms: _90  and  _91
REMARK   37  A    between atoms: _94  and  _96
REMARK   38  A    between atoms: _96  and  _97
REMARK   39  A    between atoms: _96  and  _99
REMARK   40  A    between atoms: _99  and  _100
REMARK   41  A    between atoms: _100  and  _101
REMARK   42  A    between atoms: _106  and  _108
REMARK   43  A    between atoms: _108  and  _109
REMARK   44  A    between atoms: _112  and  _114
REMARK   45  A    between atoms: _114  and  _115
REMARK   46  A    between atoms: _114  and  _117
REMARK   47  A    between atoms: _117  and  _118
REMARK   48  A    between atoms: _128  and  _130
REMARK   49  A    between atoms: _130  and  _131
REMARK   50  A    between atoms: _130  and  _133
REMARK   51  A    between atoms: _133  and  _134
REMARK   52  A    between atoms: _137  and  _139
REMARK   53  A    between atoms: _139  and  _140
REMARK   54  A    between atoms: _139  and  _142
REMARK   55  A    between atoms: _142  and  _143
REMARK   56  A    between atoms: _146  and  _148
REMARK   57  A    between atoms: _148  and  _149
REMARK   58  A    between atoms: _148  and  _151
REMARK   59  A    between atoms: _151  and  _152
REMARK   60  A    between atoms: _152  and  _153
REMARK   61  A    between atoms: _155  and  _157
REMARK   62  A    between atoms: _157  and  _158
REMARK   63  A    between atoms: _161  and  _163
REMARK   64  A    between atoms: _163  and  _164
REMARK   65  A    between atoms: _167  and  _169
REMARK   66  A    between atoms: _169  and  _170
REMARK   67  A    between atoms: _169  and  _172
REMARK   68  A    between atoms: _172  and  _173
REMARK   69  A    between atoms: _173  and  _174
REMARK   70  A    between atoms: _176  and  _178
REMARK   71  A    between atoms: _178  and  _179
REMARK   72  A    between atoms: _181  and  _183
REMARK   73  A    between atoms: _183  and  _184
REMARK   74  A    between atoms: _183  and  _186
REMARK   75  A    between atoms: _186  and  _187
REMARK   76  A    between atoms: _190  and  _192
REMARK   77  A    between atoms: _192  and  _193
REMARK   78  A    between atoms: _192  and  _195
REMARK   79  A    between atoms: _195  and  _196
REMARK   80  A    between atoms: _196  and  _197
REMARK   81  A    between atoms: _202  and  _204
REMARK   82  A    between atoms: _204  and  _205
REMARK   83  A    between atoms: _204  and  _207
REMARK   84  A    between atoms: _207  and  _208
REMARK   85  A    between atoms: _208  and  _209
REMARK   86  A    between atoms: _209  and  _210
REMARK   87  A    between atoms: _219  and  _221
REMARK   88  A    between atoms: _221  and  _222
REMARK   89  A    between atoms: _221  and  _224
REMARK   90  A    between atoms: _224  and  _225
REMARK   91  A    between atoms: _231  and  _233
REMARK   92  A    between atoms: _233  and  _234
REMARK   93  A    between atoms: _233  and  _236
REMARK   94  A    between atoms: _236  and  _237
REMARK   95  A    between atoms: _240  and  _242
REMARK   96  A    between atoms: _242  and  _243
REMARK   97  A    between atoms: _242  and  _245
REMARK   98  A    between atoms: _245  and  _246
REMARK   99  A    between atoms: _249  and  _251
REMARK  100  A    between atoms: _251  and  _252
REMARK  101  A    between atoms: _251  and  _254
REMARK  102  A    between atoms: _254  and  _255
REMARK  103  A    between atoms: _259  and  _260
REMARK  104  A    between atoms: _265  and  _267
REMARK  105  A    between atoms: _267  and  _268
REMARK  106  A    between atoms: _267  and  _270
REMARK  107  A    between atoms: _270  and  _271
REMARK  108  A    between atoms: _271  and  _272
REMARK  109  A    between atoms: _274  and  _276
REMARK  110  A    between atoms: _276  and  _277
REMARK  111  A    between atoms: _276  and  _279
REMARK  112  A    between atoms: _279  and  _280
REMARK  113  A    between atoms: _283  and  _285
REMARK  114  A    between atoms: _285  and  _286
REMARK  115  A    between atoms: _285  and  _288
REMARK  116  A    between atoms: _288  and  _289
REMARK  117  A    between atoms: _289  and  _290
REMARK  118  A    between atoms: _295  and  _297
REMARK  119  A    between atoms: _297  and  _298
REMARK  120  A    between atoms: _301  and  _303
REMARK  121  A    between atoms: _303  and  _304
REMARK  122  A    between atoms: _306  and  _308
REMARK  123  A    between atoms: _308  and  _309
REMARK  124  A    between atoms: _308  and  _311
REMARK  125  A    between atoms: _311  and  _312
REMARK  126  A    between atoms: _315  and  _317
REMARK  127  A    between atoms: _317  and  _318
REMARK  128  A    between atoms: _317  and  _320
REMARK  129  A    between atoms: _320  and  _321
REMARK  130  A    between atoms: _323  and  _325
REMARK  131  A    between atoms: _325  and  _326
REMARK  132  A    between atoms: _325  and  _328
REMARK  133  A    between atoms: _328  and  _329
REMARK  134  A    between atoms: _334  and  _336
REMARK  135  A    between atoms: _336  and  _337
REMARK  136  A    between atoms: _336  and  _339
REMARK  137  A    between atoms: _339  and  _340
REMARK  138  A    between atoms: _340  and  _341
REMARK  139  A    between atoms: _344  and  _346
REMARK  140  A    between atoms: _346  and  _347
REMARK  141  A    between atoms: _350  and  _352
REMARK  142  A    between atoms: _352  and  _353
REMARK  143  A    between atoms: _352  and  _355
REMARK  144  A    between atoms: _355  and  _356
REMARK  145  A    between atoms: _362  and  _364
REMARK  146  A    between atoms: _364  and  _365
REMARK  147  A    between atoms: _364  and  _367
REMARK  148  A    between atoms: _367  and  _368
REMARK  149  A    between atoms: _371  and  _373
REMARK  150  A    between atoms: _373  and  _374
REMARK  151  A    between atoms: _373  and  _376
REMARK  152  A    between atoms: _376  and  _377
REMARK  153  A    between atoms: _380  and  _382
REMARK  154  A    between atoms: _382  and  _383
REMARK  155  A    between atoms: _382  and  _385
REMARK  156  A    between atoms: _385  and  _386
REMARK  157  A    between atoms: _389  and  _391
REMARK  158  A    between atoms: _391  and  _392
REMARK  159  A    between atoms: _391  and  _394
REMARK  160  A    between atoms: _394  and  _395
REMARK  161  A    between atoms: _398  and  _400
REMARK  162  A    between atoms: _400  and  _401
REMARK  163  A    between atoms: _400  and  _403
REMARK  164  A    between atoms: _403  and  _404
REMARK  165  A    between atoms: _407  and  _409
REMARK  166  A    between atoms: _409  and  _410
REMARK  167  A    between atoms: _413  and  _415
REMARK  168  A    between atoms: _415  and  _416
REMARK  169  A    between atoms: _415  and  _418
REMARK  170  A    between atoms: _418  and  _419
REMARK  171  A    between atoms: _421  and  _423
REMARK  172  A    between atoms: _423  and  _424
REMARK  173  A    between atoms: _423  and  _426
REMARK  174  A    between atoms: _429  and  _431
REMARK  175  A    between atoms: _431  and  _432
REMARK  176  A    between atoms: _431  and  _434
REMARK  177  A    between atoms: _434  and  _435
REMARK  178  A    between atoms: _437  and  _439
REMARK  179  A    between atoms: _439  and  _440
REMARK  180  A    between atoms: _439  and  _442
REMARK  181  A    between atoms: _442  and  _443
REMARK  182  A    between atoms: _449  and  _451
REMARK  183  A    between atoms: _451  and  _452
REMARK  184  A    between atoms: _451  and  _454
REMARK  185  A    between atoms: _454  and  _455
REMARK  186  A    between atoms: _458  and  _460
REMARK  187  A    between atoms: _460  and  _461
REMARK  188  A    between atoms: _460  and  _463
REMARK  189  A    between atoms: _463  and  _464
REMARK  190  A    between atoms: _467  and  _469
REMARK  191  A    between atoms: _469  and  _470
REMARK  192  A    between atoms: _469  and  _472
REMARK  193  A    between atoms: _472  and  _473
REMARK  194  A    between atoms: _479  and  _481
REMARK  195  A    between atoms: _481  and  _482
REMARK  196  A    between atoms: _484  and  _486
REMARK  197  A    between atoms: _486  and  _487
REMARK  198  A    between atoms: _486  and  _489
REMARK  199  A    between atoms: _489  and  _490
REMARK  200  A    between atoms: _490  and  _491
REMARK  201  A    between atoms: _491  and  _492
REMARK  202  A    between atoms: _492  and  _493
REMARK  203  A    between atoms: _497  and  _499
REMARK  204  A    between atoms: _499  and  _500
REMARK  205  A    between atoms: _502  and  _504
REMARK  206  A    between atoms: _504  and  _505
REMARK  207  A    between atoms: _504  and  _507
REMARK  208  A    between atoms: _510  and  _512
REMARK  209  A    between atoms: _512  and  _513
REMARK  210  A    between atoms: _515  and  _517
REMARK  211  A    between atoms: _517  and  _518
REMARK  212  A    between atoms: _517  and  _520
REMARK  213  A    between atoms: _520  and  _521
REMARK                            x       y       z     vdW  Elec       q    Type
REMARK                         _______ _______ _______ _____ _____    ______ ____
ROOT
ATOM      1  O   HOH     1      -2.478  11.598   5.325  0.00  0.00    +0.000 OA
ENDROOT
TORSDOF 0
REMARK  Name = ../refined-set-2016/4pow/4pow_pocket.pdb
REMARK  213 active torsions:
REMARK  status: ('A' for Active; 'I' for Inactive)
REMARK    1  A    between atoms: _1  and  _3
REMARK    2  A    between atoms: _3  and  _4
REMARK    3  A    between atoms: _3  and  _6
REMARK    4  A    between atoms: _6  and  _7
REMARK    5  A    between atoms: _10  and  _12
REMARK    6  A    between atoms: _12  and  _13
REMARK    7  A    between atoms: _12  and  _15
REMARK    8  A    between atoms: _15  and  _16
REMARK    9  A    between atoms: _16  and  _17
REMARK   10  A    between atoms: _20  and  _22
REMARK   11  A    between atoms: _22  and  _23
REMARK   12  A    between atoms: _25  and  _27
REMARK   13  A    between atoms: _27  and  _28
REMARK   14  A    between atoms: _27  and  _30
REMARK   15  A    between atoms: _30  and  _31
REMARK   16  A    between atoms: _33  and  _35
REMARK   17  A    between atoms: _35  and  _36
REMARK   18  A    between atoms: _35  and  _38
REMARK   19  A    between atoms: _38  and  _39
REMARK   20  A    between atoms: _44  and  _45
REMARK   21  A    between atoms: _47  and  _49
REMARK   22  A    between atoms: _49  and  _50
REMARK   23  A    between atoms: _54  and  _55
REMARK   24  A    between atoms: _60  and  _62
REMARK   25  A    between atoms: _62  and  _63
REMARK   26  A    between atoms: _62  and  _65
REMARK   27  A    between atoms: _65  and  _66
REMARK   28  A    between atoms: _71  and  _72
REMARK   29  A    between atoms: _74  and  _76
REMARK   30  A    between atoms: _76  and  _77
REMARK   31  A    between atoms: _76  and  _79
REMARK   32  A    between atoms: _79  and  _80
REMARK   33  A    between atoms: _85  and  _87
REMARK   34  A    between atoms: _87  and  _88
REMARK   35  A    between atoms: _87  and  _90
REMARK   36  A    between atoms: _90  and  _91
REMARK   37  A    between atoms: _94  and  _96
REMARK   38  A    between atoms: _96  and  _97
REMARK   39  A    between atoms: _96  and  _99
REMARK   40  A    between atoms: _99  and  _100
REMARK   41  A    between atoms: _100  and  _101
REMARK   42  A    between atoms: _106  and  _108
REMARK   43  A    between atoms: _108  and  _109
REMARK   44  A    between atoms: _112  and  _114
REMARK   45  A    between atoms: _114  and  _115
REMARK   46  A    between atoms: _114  and  _117
REMARK   47  A    between atoms: _117  and  _118
REMARK   48  A    between atoms: _128  and  _130
REMARK   49  A    between atoms: _130  and  _131
REMARK   50  A    between atoms: _130  and  _133
REMARK   51  A    between atoms: _133  and  _134
REMARK   52  A    between atoms: _137  and  _139
REMARK   53  A    between atoms: _139  and  _140
REMARK   54  A    between atoms: _139  and  _142
REMARK   55  A    between atoms: _142  and  _143
REMARK   56  A    between atoms: _146  and  _148
REMARK   57  A    between atoms: _148  and  _149
REMARK   58  A    between atoms: _148  and  _151
REMARK   59  A    between atoms: _151  and  _152
REMARK   60  A    between atoms: _152  and  _153
REMARK   61  A    between atoms: _155  and  _157
REMARK   62  A    between atoms: _157  and  _158
REMARK   63  A    between atoms: _161  and  _163
REMARK   64  A    between atoms: _163  and  _164
REMARK   65  A    between atoms: _167  and  _169
REMARK   66  A    between atoms: _169  and  _170
REMARK   67  A    between atoms: _169  and  _172
REMARK   68  A    between atoms: _172  and  _173
REMARK   69  A    between atoms: _173  and  _174
REMARK   70  A    between atoms: _176  and  _178
REMARK   71  A    between atoms: _178  and  _179
REMARK   72  A    between atoms: _181  and  _183
REMARK   73  A    between atoms: _183  and  _184
REMARK   74  A    between atoms: _183  and  _186
REMARK   75  A    between atoms: _186  and  _187
REMARK   76  A    between atoms: _190  and  _192
REMARK   77  A    between atoms: _192  and  _193
REMARK   78  A    between atoms: _192  and  _195
REMARK   79  A    between atoms: _195  and  _196
REMARK   80  A    between atoms: _196  and  _197
REMARK   81  A    between atoms: _202  and  _204
REMARK   82  A    between atoms: _204  and  _205
REMARK   83  A    between atoms: _204  and  _207
REMARK   84  A    between atoms: _207  and  _208
REMARK   85  A    between atoms: _208  and  _209
REMARK   86  A    between atoms: _209  and  _210
REMARK   87  A    between atoms: _219  and  _221
REMARK   88  A    between atoms: _221  and  _222
REMARK   89  A    between atoms: _221  and  _224
REMARK   90  A    between atoms: _224  and  _225
REMARK   91  A    between atoms: _231  and  _233
REMARK   92  A    between atoms: _233  and  _234
REMARK   93  A    between atoms: _233  and  _236
REMARK   94  A    between atoms: _236  and  _237
REMARK   95  A    between atoms: _240  and  _242
REMARK   96  A    between atoms: _242  and  _243
REMARK   97  A    between atoms: _242  and  _245
REMARK   98  A    between atoms: _245  and  _246
REMARK   99  A    between atoms: _249  and  _251
REMARK  100  A    between atoms: _251  and  _252
REMARK  101  A    between atoms: _251  and  _254
REMARK  102  A    between atoms: _254  and  _255
REMARK  103  A    between atoms: _259  and  _260
REMARK  104  A    between atoms: _265  and  _267
REMARK  105  A    between atoms: _267  and  _268
REMARK  106  A    between atoms: _267  and  _270
REMARK  107  A    between atoms: _270  and  _271
REMARK  108  A    between atoms: _271  and  _272
REMARK  109  A    between atoms: _274  and  _276
REMARK  110  A    between atoms: _276  and  _277
REMARK  111  A    between atoms: _276  and  _279
REMARK  112  A    between atoms: _279  and  _280
REMARK  113  A    between atoms: _283  and  _285
REMARK  114  A    between atoms: _285  and  _286
REMARK  115  A    between atoms: _285  and  _288
REMARK  116  A    between atoms: _288  and  _289
REMARK  117  A    between atoms: _289  and  _290
REMARK  118  A    between atoms: _295  and  _297
REMARK  119  A    between atoms: _297  and  _298
REMARK  120  A    between atoms: _301  and  _303
REMARK  121  A    between atoms: _303  and  _304
REMARK  122  A    between atoms: _306  and  _308
REMARK  123  A    between atoms: _308  and  _309
REMARK  124  A    between atoms: _308  and  _311
REMARK  125  A    between atoms: _311  and  _312
REMARK  126  A    between atoms: _315  and  _317
REMARK  127  A    between atoms: _317  and  _318
REMARK  128  A    between atoms: _317  and  _320
REMARK  129  A    between atoms: _320  and  _321
REMARK  130  A    between atoms: _323  and  _325
REMARK  131  A    between atoms: _325  and  _326
REMARK  132  A    between atoms: _325  and  _328
REMARK  133  A    between atoms: _328  and  _329
REMARK  134  A    between atoms: _334  and  _336
REMARK  135  A    between atoms: _336  and  _337
REMARK  136  A    between atoms: _336  and  _339
REMARK  137  A    between atoms: _339  and  _340
REMARK  138  A    between atoms: _340  and  _341
REMARK  139  A    between atoms: _344  and  _346
REMARK  140  A    between atoms: _346  and  _347
REMARK  141  A    between atoms: _350  and  _352
REMARK  142  A    between atoms: _352  and  _353
REMARK  143  A    between atoms: _352  and  _355
REMARK  144  A    between atoms: _355  and  _356
REMARK  145  A    between atoms: _362  and  _364
REMARK  146  A    between atoms: _364  and  _365
REMARK  147  A    between atoms: _364  and  _367
REMARK  148  A    between atoms: _367  and  _368
REMARK  149  A    between atoms: _371  and  _373
REMARK  150  A    between atoms: _373  and  _374
REMARK  151  A    between atoms: _373  and  _376
REMARK  152  A    between atoms: _376  and  _377
REMARK  153  A    between atoms: _380  and  _382
REMARK  154  A    between atoms: _382  and  _383
REMARK  155  A    between atoms: _382  and  _385
REMARK  156  A    between atoms: _385  and  _386
REMARK  157  A    between atoms: _389  and  _391
REMARK  158  A    between atoms: _391  and  _392
REMARK  159  A    between atoms: _391  and  _394
REMARK  160  A    between atoms: _394  and  _395
REMARK  161  A    between atoms: _398  and  _400
REMARK  162  A    between atoms: _400  and  _401
REMARK  163  A    between atoms: _400  and  _403
REMARK  164  A    between atoms: _403  and  _404
REMARK  165  A    between atoms: _407  and  _409
REMARK  166  A    between atoms: _409  and  _410
REMARK  167  A    between atoms: _413  and  _415
REMARK  168  A    between atoms: _415  and  _416
REMARK  169  A    between atoms: _415  and  _418
REMARK  170  A    between atoms: _418  and  _419
REMARK  171  A    between atoms: _421  and  _423
REMARK  172  A    between atoms: _423  and  _424
REMARK  173  A    between atoms: _423  and  _426
REMARK  174  A    between atoms: _429  and  _431
REMARK  175  A    between atoms: _431  and  _432
REMARK  176  A    between atoms: _431  and  _434
REMARK  177  A    between atoms: _434  and  _435
REMARK  178  A    between atoms: _437  and  _439
REMARK  179  A    between atoms: _439  and  _440
REMARK  180  A    between atoms: _439  and  _442
REMARK  181  A    between atoms: _442  and  _443
REMARK  182  A    between atoms: _449  and  _451
REMARK  183  A    between atoms: _451  and  _452
REMARK  184  A    between atoms: _451  and  _454
REMARK  185  A    between atoms: _454  and  _455
REMARK  186  A    between atoms: _458  and  _460
REMARK  187  A    between atoms: _460  and  _461
REMARK  188  A    between atoms: _460  and  _463
REMARK  189  A    between atoms: _463  and  _464
REMARK  190  A    between atoms: _467  and  _469
REMARK  191  A    between atoms: _469  and  _470
REMARK  192  A    between atoms: _469  and  _472
REMARK  193  A    between atoms: _472  and  _473
REMARK  194  A    between atoms: _479  and  _481
REMARK  195  A    between atoms: _481  and  _482
REMARK  196  A    between atoms: _484  and  _486
REMARK  197  A    between atoms: _486  and  _487
REMARK  198  A    between atoms: _486  and  _489
REMARK  199  A    between atoms: _489  and  _490
REMARK  200  A    between atoms: _490  and  _491
REMARK  201  A    between atoms: _491  and  _492
REMARK  202  A    between atoms: _492  and  _493
REMARK  203  A    between atoms: _497  and  _499
REMARK  204  A    between atoms: _499  and  _500
REMARK  205  A    between atoms: _502  and  _504
REMARK  206  A    between atoms: _504  and  _505
REMARK  207  A    between atoms: _504  and  _507
REMARK  208  A    between atoms: _510  and  _512
REMARK  209  A    between atoms: _512  and  _513
REMARK  210  A    between atoms: _515  and  _517
REMARK  211  A    between atoms: _517  and  _518
REMARK  212  A    between atoms: _517  and  _520
REMARK  213  A    between atoms: _520  and  _521
REMARK                            x       y       z     vdW  Elec       q    Type
REMARK                         _______ _______ _______ _____ _____    ______ ____
ROOT
ATOM      1  O   HOH     1      -1.251  12.353   9.256  0.00  0.00    +0.000 OA
ENDROOT
TORSDOF 0
REMARK  Name = ../refined-set-2016/4pow/4pow_pocket.pdb
REMARK  213 active torsions:
REMARK  status: ('A' for Active; 'I' for Inactive)
REMARK    1  A    between atoms: _1  and  _3
REMARK    2  A    between atoms: _3  and  _4
REMARK    3  A    between atoms: _3  and  _6
REMARK    4  A    between atoms: _6  and  _7
REMARK    5  A    between atoms: _10  and  _12
REMARK    6  A    between atoms: _12  and  _13
REMARK    7  A    between atoms: _12  and  _15
REMARK    8  A    between atoms: _15  and  _16
REMARK    9  A    between atoms: _16  and  _17
REMARK   10  A    between atoms: _20  and  _22
REMARK   11  A    between atoms: _22  and  _23
REMARK   12  A    between atoms: _25  and  _27
REMARK   13  A    between atoms: _27  and  _28
REMARK   14  A    between atoms: _27  and  _30
REMARK   15  A    between atoms: _30  and  _31
REMARK   16  A    between atoms: _33  and  _35
REMARK   17  A    between atoms: _35  and  _36
REMARK   18  A    between atoms: _35  and  _38
REMARK   19  A    between atoms: _38  and  _39
REMARK   20  A    between atoms: _44  and  _45
REMARK   21  A    between atoms: _47  and  _49
REMARK   22  A    between atoms: _49  and  _50
REMARK   23  A    between atoms: _54  and  _55
REMARK   24  A    between atoms: _60  and  _62
REMARK   25  A    between atoms: _62  and  _63
REMARK   26  A    between atoms: _62  and  _65
REMARK   27  A    between atoms: _65  and  _66
REMARK   28  A    between atoms: _71  and  _72
REMARK   29  A    between atoms: _74  and  _76
REMARK   30  A    between atoms: _76  and  _77
REMARK   31  A    between atoms: _76  and  _79
REMARK   32  A    between atoms: _79  and  _80
REMARK   33  A    between atoms: _85  and  _87
REMARK   34  A    between atoms: _87  and  _88
REMARK   35  A    between atoms: _87  and  _90
REMARK   36  A    between atoms: _90  and  _91
REMARK   37  A    between atoms: _94  and  _96
REMARK   38  A    between atoms: _96  and  _97
REMARK   39  A    between atoms: _96  and  _99
REMARK   40  A    between atoms: _99  and  _100
REMARK   41  A    between atoms: _100  and  _101
REMARK   42  A    between atoms: _106  and  _108
REMARK   43  A    between atoms: _108  and  _109
REMARK   44  A    between atoms: _112  and  _114
REMARK   45  A    between atoms: _114  and  _115
REMARK   46  A    between atoms: _114  and  _117
REMARK   47  A    between atoms: _117  and  _118
REMARK   48  A    between atoms: _128  and  _130
REMARK   49  A    between atoms: _130  and  _131
REMARK   50  A    between atoms: _130  and  _133
REMARK   51  A    between atoms: _133  and  _134
REMARK   52  A    between atoms: _137  and  _139
REMARK   53  A    between atoms: _139  and  _140
REMARK   54  A    between atoms: _139  and  _142
REMARK   55  A    between atoms: _142  and  _143
REMARK   56  A    between atoms: _146  and  _148
REMARK   57  A    between atoms: _148  and  _149
REMARK   58  A    between atoms: _148  and  _151
REMARK   59  A    between atoms: _151  and  _152
REMARK   60  A    between atoms: _152  and  _153
REMARK   61  A    between atoms: _155  and  _157
REMARK   62  A    between atoms: _157  and  _158
REMARK   63  A    between atoms: _161  and  _163
REMARK   64  A    between atoms: _163  and  _164
REMARK   65  A    between atoms: _167  and  _169
REMARK   66  A    between atoms: _169  and  _170
REMARK   67  A    between atoms: _169  and  _172
REMARK   68  A    between atoms: _172  and  _173
REMARK   69  A    between atoms: _173  and  _174
REMARK   70  A    between atoms: _176  and  _178
REMARK   71  A    between atoms: _178  and  _179
REMARK   72  A    between atoms: _181  and  _183
REMARK   73  A    between atoms: _183  and  _184
REMARK   74  A    between atoms: _183  and  _186
REMARK   75  A    between atoms: _186  and  _187
REMARK   76  A    between atoms: _190  and  _192
REMARK   77  A    between atoms: _192  and  _193
REMARK   78  A    between atoms: _192  and  _195
REMARK   79  A    between atoms: _195  and  _196
REMARK   80  A    between atoms: _196  and  _197
REMARK   81  A    between atoms: _202  and  _204
REMARK   82  A    between atoms: _204  and  _205
REMARK   83  A    between atoms: _204  and  _207
REMARK   84  A    between atoms: _207  and  _208
REMARK   85  A    between atoms: _208  and  _209
REMARK   86  A    between atoms: _209  and  _210
REMARK   87  A    between atoms: _219  and  _221
REMARK   88  A    between atoms: _221  and  _222
REMARK   89  A    between atoms: _221  and  _224
REMARK   90  A    between atoms: _224  and  _225
REMARK   91  A    between atoms: _231  and  _233
REMARK   92  A    between atoms: _233  and  _234
REMARK   93  A    between atoms: _233  and  _236
REMARK   94  A    between atoms: _236  and  _237
REMARK   95  A    between atoms: _240  and  _242
REMARK   96  A    between atoms: _242  and  _243
REMARK   97  A    between atoms: _242  and  _245
REMARK   98  A    between atoms: _245  and  _246
REMARK   99  A    between atoms: _249  and  _251
REMARK  100  A    between atoms: _251  and  _252
REMARK  101  A    between atoms: _251  and  _254
REMARK  102  A    between atoms: _254  and  _255
REMARK  103  A    between atoms: _259  and  _260
REMARK  104  A    between atoms: _265  and  _267
REMARK  105  A    between atoms: _267  and  _268
REMARK  106  A    between atoms: _267  and  _270
REMARK  107  A    between atoms: _270  and  _271
REMARK  108  A    between atoms: _271  and  _272
REMARK  109  A    between atoms: _274  and  _276
REMARK  110  A    between atoms: _276  and  _277
REMARK  111  A    between atoms: _276  and  _279
REMARK  112  A    between atoms: _279  and  _280
REMARK  113  A    between atoms: _283  and  _285
REMARK  114  A    between atoms: _285  and  _286
REMARK  115  A    between atoms: _285  and  _288
REMARK  116  A    between atoms: _288  and  _289
REMARK  117  A    between atoms: _289  and  _290
REMARK  118  A    between atoms: _295  and  _297
REMARK  119  A    between atoms: _297  and  _298
REMARK  120  A    between atoms: _301  and  _303
REMARK  121  A    between atoms: _303  and  _304
REMARK  122  A    between atoms: _306  and  _308
REMARK  123  A    between atoms: _308  and  _309
REMARK  124  A    between atoms: _308  and  _311
REMARK  125  A    between atoms: _311  and  _312
REMARK  126  A    between atoms: _315  and  _317
REMARK  127  A    between atoms: _317  and  _318
REMARK  128  A    between atoms: _317  and  _320
REMARK  129  A    between atoms: _320  and  _321
REMARK  130  A    between atoms: _323  and  _325
REMARK  131  A    between atoms: _325  and  _326
REMARK  132  A    between atoms: _325  and  _328
REMARK  133  A    between atoms: _328  and  _329
REMARK  134  A    between atoms: _334  and  _336
REMARK  135  A    between atoms: _336  and  _337
REMARK  136  A    between atoms: _336  and  _339
REMARK  137  A    between atoms: _339  and  _340
REMARK  138  A    between atoms: _340  and  _341
REMARK  139  A    between atoms: _344  and  _346
REMARK  140  A    between atoms: _346  and  _347
REMARK  141  A    between atoms: _350  and  _352
REMARK  142  A    between atoms: _352  and  _353
REMARK  143  A    between atoms: _352  and  _355
REMARK  144  A    between atoms: _355  and  _356
REMARK  145  A    between atoms: _362  and  _364
REMARK  146  A    between atoms: _364  and  _365
REMARK  147  A    between atoms: _364  and  _367
REMARK  148  A    between atoms: _367  and  _368
REMARK  149  A    between atoms: _371  and  _373
REMARK  150  A    between atoms: _373  and  _374
REMARK  151  A    between atoms: _373  and  _376
REMARK  152  A    between atoms: _376  and  _377
REMARK  153  A    between atoms: _380  and  _382
REMARK  154  A    between atoms: _382  and  _383
REMARK  155  A    between atoms: _382  and  _385
REMARK  156  A    between atoms: _385  and  _386
REMARK  157  A    between atoms: _389  and  _391
REMARK  158  A    between atoms: _391  and  _392
REMARK  159  A    between atoms: _391  and  _394
REMARK  160  A    between atoms: _394  and  _395
REMARK  161  A    between atoms: _398  and  _400
REMARK  162  A    between atoms: _400  and  _401
REMARK  163  A    between atoms: _400  and  _403
REMARK  164  A    between atoms: _403  and  _404
REMARK  165  A    between atoms: _407  and  _409
REMARK  166  A    between atoms: _409  and  _410
REMARK  167  A    between atoms: _413  and  _415
REMARK  168  A    between atoms: _415  and  _416
REMARK  169  A    between atoms: _415  and  _418
REMARK  170  A    between atoms: _418  and  _419
REMARK  171  A    between atoms: _421  and  _423
REMARK  172  A    between atoms: _423  and  _424
REMARK  173  A    between atoms: _423  and  _426
REMARK  174  A    between atoms: _429  and  _431
REMARK  175  A    between atoms: _431  and  _432
REMARK  176  A    between atoms: _431  and  _434
REMARK  177  A    between atoms: _434  and  _435
REMARK  178  A    between atoms: _437  and  _439
REMARK  179  A    between atoms: _439  and  _440
REMARK  180  A    between atoms: _439  and  _442
REMARK  181  A    between atoms: _442  and  _443
REMARK  182  A    between atoms: _449  and  _451
REMARK  183  A    between atoms: _451  and  _452
REMARK  184  A    between atoms: _451  and  _454
REMARK  185  A    between atoms: _454  and  _455
REMARK  186  A    between atoms: _458  and  _460
REMARK  187  A    between atoms: _460  and  _461
REMARK  188  A    between atoms: _460  and  _463
REMARK  189  A    between atoms: _463  and  _464
REMARK  190  A    between atoms: _467  and  _469
REMARK  191  A    between atoms: _469  and  _470
REMARK  192  A    between atoms: _469  and  _472
REMARK  193  A    between atoms: _472  and  _473
REMARK  194  A    between atoms: _479  and  _481
REMARK  195  A    between atoms: _481  and  _482
REMARK  196  A    between atoms: _484  and  _486
REMARK  197  A    between atoms: _486  and  _487
REMARK  198  A    between atoms: _486  and  _489
REMARK  199  A    between atoms: _489  and  _490
REMARK  200  A    between atoms: _490  and  _491
REMARK  201  A    between atoms: _491  and  _492
REMARK  202  A    between atoms: _492  and  _493
REMARK  203  A    between atoms: _497  and  _499
REMARK  204  A    between atoms: _499  and  _500
REMARK  205  A    between atoms: _502  and  _504
REMARK  206  A    between atoms: _504  and  _505
REMARK  207  A    between atoms: _504  and  _507
REMARK  208  A    between atoms: _510  and  _512
REMARK  209  A    between atoms: _512  and  _513
REMARK  210  A    between atoms: _515  and  _517
REMARK  211  A    between atoms: _517  and  _518
REMARK  212  A    between atoms: _517  and  _520
REMARK  213  A    between atoms: _520  and  _521
REMARK                            x       y       z     vdW  Elec       q    Type
REMARK                         _______ _______ _______ _____ _____    ______ ____
ROOT
ATOM      1  O   HOH     1      -0.126  10.391   7.857  0.00  0.00    +0.000 OA
ENDROOT
TORSDOF 0
REMARK  Name = ../refined-set-2016/4pow/4pow_pocket.pdb
REMARK  213 active torsions:
REMARK  status: ('A' for Active; 'I' for Inactive)
REMARK    1  A    between atoms: _1  and  _3
REMARK    2  A    between atoms: _3  and  _4
REMARK    3  A    between atoms: _3  and  _6
REMARK    4  A    between atoms: _6  and  _7
REMARK    5  A    between atoms: _10  and  _12
REMARK    6  A    between atoms: _12  and  _13
REMARK    7  A    between atoms: _12  and  _15
REMARK    8  A    between atoms: _15  and  _16
REMARK    9  A    between atoms: _16  and  _17
REMARK   10  A    between atoms: _20  and  _22
REMARK   11  A    between atoms: _22  and  _23
REMARK   12  A    between atoms: _25  and  _27
REMARK   13  A    between atoms: _27  and  _28
REMARK   14  A    between atoms: _27  and  _30
REMARK   15  A    between atoms: _30  and  _31
REMARK   16  A    between atoms: _33  and  _35
REMARK   17  A    between atoms: _35  and  _36
REMARK   18  A    between atoms: _35  and  _38
REMARK   19  A    between atoms: _38  and  _39
REMARK   20  A    between atoms: _44  and  _45
REMARK   21  A    between atoms: _47  and  _49
REMARK   22  A    between atoms: _49  and  _50
REMARK   23  A    between atoms: _54  and  _55
REMARK   24  A    between atoms: _60  and  _62
REMARK   25  A    between atoms: _62  and  _63
REMARK   26  A    between atoms: _62  and  _65
REMARK   27  A    between atoms: _65  and  _66
REMARK   28  A    between atoms: _71  and  _72
REMARK   29  A    between atoms: _74  and  _76
REMARK   30  A    between atoms: _76  and  _77
REMARK   31  A    between atoms: _76  and  _79
REMARK   32  A    between atoms: _79  and  _80
REMARK   33  A    between atoms: _85  and  _87
REMARK   34  A    between atoms: _87  and  _88
REMARK   35  A    between atoms: _87  and  _90
REMARK   36  A    between atoms: _90  and  _91
REMARK   37  A    between atoms: _94  and  _96
REMARK   38  A    between atoms: _96  and  _97
REMARK   39  A    between atoms: _96  and  _99
REMARK   40  A    between atoms: _99  and  _100
REMARK   41  A    between atoms: _100  and  _101
REMARK   42  A    between atoms: _106  and  _108
REMARK   43  A    between atoms: _108  and  _109
REMARK   44  A    between atoms: _112  and  _114
REMARK   45  A    between atoms: _114  and  _115
REMARK   46  A    between atoms: _114  and  _117
REMARK   47  A    between atoms: _117  and  _118
REMARK   48  A    between atoms: _128  and  _130
REMARK   49  A    between atoms: _130  and  _131
REMARK   50  A    between atoms: _130  and  _133
REMARK   51  A    between atoms: _133  and  _134
REMARK   52  A    between atoms: _137  and  _139
REMARK   53  A    between atoms: _139  and  _140
REMARK   54  A    between atoms: _139  and  _142
REMARK   55  A    between atoms: _142  and  _143
REMARK   56  A    between atoms: _146  and  _148
REMARK   57  A    between atoms: _148  and  _149
REMARK   58  A    between atoms: _148  and  _151
REMARK   59  A    between atoms: _151  and  _152
REMARK   60  A    between atoms: _152  and  _153
REMARK   61  A    between atoms: _155  and  _157
REMARK   62  A    between atoms: _157  and  _158
REMARK   63  A    between atoms: _161  and  _163
REMARK   64  A    between atoms: _163  and  _164
REMARK   65  A    between atoms: _167  and  _169
REMARK   66  A    between atoms: _169  and  _170
REMARK   67  A    between atoms: _169  and  _172
REMARK   68  A    between atoms: _172  and  _173
REMARK   69  A    between atoms: _173  and  _174
REMARK   70  A    between atoms: _176  and  _178
REMARK   71  A    between atoms: _178  and  _179
REMARK   72  A    between atoms: _181  and  _183
REMARK   73  A    between atoms: _183  and  _184
REMARK   74  A    between atoms: _183  and  _186
REMARK   75  A    between atoms: _186  and  _187
REMARK   76  A    between atoms: _190  and  _192
REMARK   77  A    between atoms: _192  and  _193
REMARK   78  A    between atoms: _192  and  _195
REMARK   79  A    between atoms: _195  and  _196
REMARK   80  A    between atoms: _196  and  _197
REMARK   81  A    between atoms: _202  and  _204
REMARK   82  A    between atoms: _204  and  _205
REMARK   83  A    between atoms: _204  and  _207
REMARK   84  A    between atoms: _207  and  _208
REMARK   85  A    between atoms: _208  and  _209
REMARK   86  A    between atoms: _209  and  _210
REMARK   87  A    between atoms: _219  and  _221
REMARK   88  A    between atoms: _221  and  _222
REMARK   89  A    between atoms: _221  and  _224
REMARK   90  A    between atoms: _224  and  _225
REMARK   91  A    between atoms: _231  and  _233
REMARK   92  A    between atoms: _233  and  _234
REMARK   93  A    between atoms: _233  and  _236
REMARK   94  A    between atoms: _236  and  _237
REMARK   95  A    between atoms: _240  and  _242
REMARK   96  A    between atoms: _242  and  _243
REMARK   97  A    between atoms: _242  and  _245
REMARK   98  A    between atoms: _245  and  _246
REMARK   99  A    between atoms: _249  and  _251
REMARK  100  A    between atoms: _251  and  _252
REMARK  101  A    between atoms: _251  and  _254
REMARK  102  A    between atoms: _254  and  _255
REMARK  103  A    between atoms: _259  and  _260
REMARK  104  A    between atoms: _265  and  _267
REMARK  105  A    between atoms: _267  and  _268
REMARK  106  A    between atoms: _267  and  _270
REMARK  107  A    between atoms: _270  and  _271
REMARK  108  A    between atoms: _271  and  _272
REMARK  109  A    between atoms: _274  and  _276
REMARK  110  A    between atoms: _276  and  _277
REMARK  111  A    between atoms: _276  and  _279
REMARK  112  A    between atoms: _279  and  _280
REMARK  113  A    between atoms: _283  and  _285
REMARK  114  A    between atoms: _285  and  _286
REMARK  115  A    between atoms: _285  and  _288
REMARK  116  A    between atoms: _288  and  _289
REMARK  117  A    between atoms: _289  and  _290
REMARK  118  A    between atoms: _295  and  _297
REMARK  119  A    between atoms: _297  and  _298
REMARK  120  A    between atoms: _301  and  _303
REMARK  121  A    between atoms: _303  and  _304
REMARK  122  A    between atoms: _306  and  _308
REMARK  123  A    between atoms: _308  and  _309
REMARK  124  A    between atoms: _308  and  _311
REMARK  125  A    between atoms: _311  and  _312
REMARK  126  A    between atoms: _315  and  _317
REMARK  127  A    between atoms: _317  and  _318
REMARK  128  A    between atoms: _317  and  _320
REMARK  129  A    between atoms: _320  and  _321
REMARK  130  A    between atoms: _323  and  _325
REMARK  131  A    between atoms: _325  and  _326
REMARK  132  A    between atoms: _325  and  _328
REMARK  133  A    between atoms: _328  and  _329
REMARK  134  A    between atoms: _334  and  _336
REMARK  135  A    between atoms: _336  and  _337
REMARK  136  A    between atoms: _336  and  _339
REMARK  137  A    between atoms: _339  and  _340
REMARK  138  A    between atoms: _340  and  _341
REMARK  139  A    between atoms: _344  and  _346
REMARK  140  A    between atoms: _346  and  _347
REMARK  141  A    between atoms: _350  and  _352
REMARK  142  A    between atoms: _352  and  _353
REMARK  143  A    between atoms: _352  and  _355
REMARK  144  A    between atoms: _355  and  _356
REMARK  145  A    between atoms: _362  and  _364
REMARK  146  A    between atoms: _364  and  _365
REMARK  147  A    between atoms: _364  and  _367
REMARK  148  A    between atoms: _367  and  _368
REMARK  149  A    between atoms: _371  and  _373
REMARK  150  A    between atoms: _373  and  _374
REMARK  151  A    between atoms: _373  and  _376
REMARK  152  A    between atoms: _376  and  _377
REMARK  153  A    between atoms: _380  and  _382
REMARK  154  A    between atoms: _382  and  _383
REMARK  155  A    between atoms: _382  and  _385
REMARK  156  A    between atoms: _385  and  _386
REMARK  157  A    between atoms: _389  and  _391
REMARK  158  A    between atoms: _391  and  _392
REMARK  159  A    between atoms: _391  and  _394
REMARK  160  A    between atoms: _394  and  _395
REMARK  161  A    between atoms: _398  and  _400
REMARK  162  A    between atoms: _400  and  _401
REMARK  163  A    between atoms: _400  and  _403
REMARK  164  A    between atoms: _403  and  _404
REMARK  165  A    between atoms: _407  and  _409
REMARK  166  A    between atoms: _409  and  _410
REMARK  167  A    between atoms: _413  and  _415
REMARK  168  A    between atoms: _415  and  _416
REMARK  169  A    between atoms: _415  and  _418
REMARK  170  A    between atoms: _418  and  _419
REMARK  171  A    between atoms: _421  and  _423
REMARK  172  A    between atoms: _423  and  _424
REMARK  173  A    between atoms: _423  and  _426
REMARK  174  A    between atoms: _429  and  _431
REMARK  175  A    between atoms: _431  and  _432
REMARK  176  A    between atoms: _431  and  _434
REMARK  177  A    between atoms: _434  and  _435
REMARK  178  A    between atoms: _437  and  _439
REMARK  179  A    between atoms: _439  and  _440
REMARK  180  A    between atoms: _439  and  _442
REMARK  181  A    between atoms: _442  and  _443
REMARK  182  A    between atoms: _449  and  _451
REMARK  183  A    between atoms: _451  and  _452
REMARK  184  A    between atoms: _451  and  _454
REMARK  185  A    between atoms: _454  and  _455
REMARK  186  A    between atoms: _458  and  _460
REMARK  187  A    between atoms: _460  and  _461
REMARK  188  A    between atoms: _460  and  _463
REMARK  189  A    between atoms: _463  and  _464
REMARK  190  A    between atoms: _467  and  _469
REMARK  191  A    between atoms: _469  and  _470
REMARK  192  A    between atoms: _469  and  _472
REMARK  193  A    between atoms: _472  and  _473
REMARK  194  A    between atoms: _479  and  _481
REMARK  195  A    between atoms: _481  and  _482
REMARK  196  A    between atoms: _484  and  _486
REMARK  197  A    between atoms: _486  and  _487
REMARK  198  A    between atoms: _486  and  _489
REMARK  199  A    between atoms: _489  and  _490
REMARK  200  A    between atoms: _490  and  _491
REMARK  201  A    between atoms: _491  and  _492
REMARK  202  A    between atoms: _492  and  _493
REMARK  203  A    between atoms: _497  and  _499
REMARK  204  A    between atoms: _499  and  _500
REMARK  205  A    between atoms: _502  and  _504
REMARK  206  A    between atoms: _504  and  _505
REMARK  207  A    between atoms: _504  and  _507
REMARK  208  A    between atoms: _510  and  _512
REMARK  209  A    between atoms: _512  and  _513
REMARK  210  A    between atoms: _515  and  _517
REMARK  211  A    between atoms: _517  and  _518
REMARK  212  A    between atoms: _517  and  _520
REMARK  213  A    between atoms: _520  and  _521
REMARK                            x       y       z     vdW  Elec       q    Type
REMARK                         _______ _______ _______ _____ _____    ______ ____
ROOT
ATOM      1  O   HOH     1       4.869  16.444  12.709  0.00  0.00    +0.000 OA
ENDROOT
TORSDOF 0
REMARK  Name = ../refined-set-2016/4pow/4pow_pocket.pdb
REMARK  213 active torsions:
REMARK  status: ('A' for Active; 'I' for Inactive)
REMARK    1  A    between atoms: _1  and  _3
REMARK    2  A    between atoms: _3  and  _4
REMARK    3  A    between atoms: _3  and  _6
REMARK    4  A    between atoms: _6  and  _7
REMARK    5  A    between atoms: _10  and  _12
REMARK    6  A    between atoms: _12  and  _13
REMARK    7  A    between atoms: _12  and  _15
REMARK    8  A    between atoms: _15  and  _16
REMARK    9  A    between atoms: _16  and  _17
REMARK   10  A    between atoms: _20  and  _22
REMARK   11  A    between atoms: _22  and  _23
REMARK   12  A    between atoms: _25  and  _27
REMARK   13  A    between atoms: _27  and  _28
REMARK   14  A    between atoms: _27  and  _30
REMARK   15  A    between atoms: _30  and  _31
REMARK   16  A    between atoms: _33  and  _35
REMARK   17  A    between atoms: _35  and  _36
REMARK   18  A    between atoms: _35  and  _38
REMARK   19  A    between atoms: _38  and  _39
REMARK   20  A    between atoms: _44  and  _45
REMARK   21  A    between atoms: _47  and  _49
REMARK   22  A    between atoms: _49  and  _50
REMARK   23  A    between atoms: _54  and  _55
REMARK   24  A    between atoms: _60  and  _62
REMARK   25  A    between atoms: _62  and  _63
REMARK   26  A    between atoms: _62  and  _65
REMARK   27  A    between atoms: _65  and  _66
REMARK   28  A    between atoms: _71  and  _72
REMARK   29  A    between atoms: _74  and  _76
REMARK   30  A    between atoms: _76  and  _77
REMARK   31  A    between atoms: _76  and  _79
REMARK   32  A    between atoms: _79  and  _80
REMARK   33  A    between atoms: _85  and  _87
REMARK   34  A    between atoms: _87  and  _88
REMARK   35  A    between atoms: _87  and  _90
REMARK   36  A    between atoms: _90  and  _91
REMARK   37  A    between atoms: _94  and  _96
REMARK   38  A    between atoms: _96  and  _97
REMARK   39  A    between atoms: _96  and  _99
REMARK   40  A    between atoms: _99  and  _100
REMARK   41  A    between atoms: _100  and  _101
REMARK   42  A    between atoms: _106  and  _108
REMARK   43  A    between atoms: _108  and  _109
REMARK   44  A    between atoms: _112  and  _114
REMARK   45  A    between atoms: _114  and  _115
REMARK   46  A    between atoms: _114  and  _117
REMARK   47  A    between atoms: _117  and  _118
REMARK   48  A    between atoms: _128  and  _130
REMARK   49  A    between atoms: _130  and  _131
REMARK   50  A    between atoms: _130  and  _133
REMARK   51  A    between atoms: _133  and  _134
REMARK   52  A    between atoms: _137  and  _139
REMARK   53  A    between atoms: _139  and  _140
REMARK   54  A    between atoms: _139  and  _142
REMARK   55  A    between atoms: _142  and  _143
REMARK   56  A    between atoms: _146  and  _148
REMARK   57  A    between atoms: _148  and  _149
REMARK   58  A    between atoms: _148  and  _151
REMARK   59  A    between atoms: _151  and  _152
REMARK   60  A    between atoms: _152  and  _153
REMARK   61  A    between atoms: _155  and  _157
REMARK   62  A    between atoms: _157  and  _158
REMARK   63  A    between atoms: _161  and  _163
REMARK   64  A    between atoms: _163  and  _164
REMARK   65  A    between atoms: _167  and  _169
REMARK   66  A    between atoms: _169  and  _170
REMARK   67  A    between atoms: _169  and  _172
REMARK   68  A    between atoms: _172  and  _173
REMARK   69  A    between atoms: _173  and  _174
REMARK   70  A    between atoms: _176  and  _178
REMARK   71  A    between atoms: _178  and  _179
REMARK   72  A    between atoms: _181  and  _183
REMARK   73  A    between atoms: _183  and  _184
REMARK   74  A    between atoms: _183  and  _186
REMARK   75  A    between atoms: _186  and  _187
REMARK   76  A    between atoms: _190  and  _192
REMARK   77  A    between atoms: _192  and  _193
REMARK   78  A    between atoms: _192  and  _195
REMARK   79  A    between atoms: _195  and  _196
REMARK   80  A    between atoms: _196  and  _197
REMARK   81  A    between atoms: _202  and  _204
REMARK   82  A    between atoms: _204  and  _205
REMARK   83  A    between atoms: _204  and  _207
REMARK   84  A    between atoms: _207  and  _208
REMARK   85  A    between atoms: _208  and  _209
REMARK   86  A    between atoms: _209  and  _210
REMARK   87  A    between atoms: _219  and  _221
REMARK   88  A    between atoms: _221  and  _222
REMARK   89  A    between atoms: _221  and  _224
REMARK   90  A    between atoms: _224  and  _225
REMARK   91  A    between atoms: _231  and  _233
REMARK   92  A    between atoms: _233  and  _234
REMARK   93  A    between atoms: _233  and  _236
REMARK   94  A    between atoms: _236  and  _237
REMARK   95  A    between atoms: _240  and  _242
REMARK   96  A    between atoms: _242  and  _243
REMARK   97  A    between atoms: _242  and  _245
REMARK   98  A    between atoms: _245  and  _246
REMARK   99  A    between atoms: _249  and  _251
REMARK  100  A    between atoms: _251  and  _252
REMARK  101  A    between atoms: _251  and  _254
REMARK  102  A    between atoms: _254  and  _255
REMARK  103  A    between atoms: _259  and  _260
REMARK  104  A    between atoms: _265  and  _267
REMARK  105  A    between atoms: _267  and  _268
REMARK  106  A    between atoms: _267  and  _270
REMARK  107  A    between atoms: _270  and  _271
REMARK  108  A    between atoms: _271  and  _272
REMARK  109  A    between atoms: _274  and  _276
REMARK  110  A    between atoms: _276  and  _277
REMARK  111  A    between atoms: _276  and  _279
REMARK  112  A    between atoms: _279  and  _280
REMARK  113  A    between atoms: _283  and  _285
REMARK  114  A    between atoms: _285  and  _286
REMARK  115  A    between atoms: _285  and  _288
REMARK  116  A    between atoms: _288  and  _289
REMARK  117  A    between atoms: _289  and  _290
REMARK  118  A    between atoms: _295  and  _297
REMARK  119  A    between atoms: _297  and  _298
REMARK  120  A    between atoms: _301  and  _303
REMARK  121  A    between atoms: _303  and  _304
REMARK  122  A    between atoms: _306  and  _308
REMARK  123  A    between atoms: _308  and  _309
REMARK  124  A    between atoms: _308  and  _311
REMARK  125  A    between atoms: _311  and  _312
REMARK  126  A    between atoms: _315  and  _317
REMARK  127  A    between atoms: _317  and  _318
REMARK  128  A    between atoms: _317  and  _320
REMARK  129  A    between atoms: _320  and  _321
REMARK  130  A    between atoms: _323  and  _325
REMARK  131  A    between atoms: _325  and  _326
REMARK  132  A    between atoms: _325  and  _328
REMARK  133  A    between atoms: _328  and  _329
REMARK  134  A    between atoms: _334  and  _336
REMARK  135  A    between atoms: _336  and  _337
REMARK  136  A    between atoms: _336  and  _339
REMARK  137  A    between atoms: _339  and  _340
REMARK  138  A    between atoms: _340  and  _341
REMARK  139  A    between atoms: _344  and  _346
REMARK  140  A    between atoms: _346  and  _347
REMARK  141  A    between atoms: _350  and  _352
REMARK  142  A    between atoms: _352  and  _353
REMARK  143  A    between atoms: _352  and  _355
REMARK  144  A    between atoms: _355  and  _356
REMARK  145  A    between atoms: _362  and  _364
REMARK  146  A    between atoms: _364  and  _365
REMARK  147  A    between atoms: _364  and  _367
REMARK  148  A    between atoms: _367  and  _368
REMARK  149  A    between atoms: _371  and  _373
REMARK  150  A    between atoms: _373  and  _374
REMARK  151  A    between atoms: _373  and  _376
REMARK  152  A    between atoms: _376  and  _377
REMARK  153  A    between atoms: _380  and  _382
REMARK  154  A    between atoms: _382  and  _383
REMARK  155  A    between atoms: _382  and  _385
REMARK  156  A    between atoms: _385  and  _386
REMARK  157  A    between atoms: _389  and  _391
REMARK  158  A    between atoms: _391  and  _392
REMARK  159  A    between atoms: _391  and  _394
REMARK  160  A    between atoms: _394  and  _395
REMARK  161  A    between atoms: _398  and  _400
REMARK  162  A    between atoms: _400  and  _401
REMARK  163  A    between atoms: _400  and  _403
REMARK  164  A    between atoms: _403  and  _404
REMARK  165  A    between atoms: _407  and  _409
REMARK  166  A    between atoms: _409  and  _410
REMARK  167  A    between atoms: _413  and  _415
REMARK  168  A    between atoms: _415  and  _416
REMARK  169  A    between atoms: _415  and  _418
REMARK  170  A    between atoms: _418  and  _419
REMARK  171  A    between atoms: _421  and  _423
REMARK  172  A    between atoms: _423  and  _424
REMARK  173  A    between atoms: _423  and  _426
REMARK  174  A    between atoms: _429  and  _431
REMARK  175  A    between atoms: _431  and  _432
REMARK  176  A    between atoms: _431  and  _434
REMARK  177  A    between atoms: _434  and  _435
REMARK  178  A    between atoms: _437  and  _439
REMARK  179  A    between atoms: _439  and  _440
REMARK  180  A    between atoms: _439  and  _442
REMARK  181  A    between atoms: _442  and  _443
REMARK  182  A    between atoms: _449  and  _451
REMARK  183  A    between atoms: _451  and  _452
REMARK  184  A    between atoms: _451  and  _454
REMARK  185  A    between atoms: _454  and  _455
REMARK  186  A    between atoms: _458  and  _460
REMARK  187  A    between atoms: _460  and  _461
REMARK  188  A    between atoms: _460  and  _463
REMARK  189  A    between atoms: _463  and  _464
REMARK  190  A    between atoms: _467  and  _469
REMARK  191  A    between atoms: _469  and  _470
REMARK  192  A    between atoms: _469  and  _472
REMARK  193  A    between atoms: _472  and  _473
REMARK  194  A    between atoms: _479  and  _481
REMARK  195  A    between atoms: _481  and  _482
REMARK  196  A    between atoms: _484  and  _486
REMARK  197  A    between atoms: _486  and  _487
REMARK  198  A    between atoms: _486  and  _489
REMARK  199  A    between atoms: _489  and  _490
REMARK  200  A    between atoms: _490  and  _491
REMARK  201  A    between atoms: _491  and  _492
REMARK  202  A    between atoms: _492  and  _493
REMARK  203  A    between atoms: _497  and  _499
REMARK  204  A    between atoms: _499  and  _500
REMARK  205  A    between atoms: _502  and  _504
REMARK  206  A    between atoms: _504  and  _505
REMARK  207  A    between atoms: _504  and  _507
REMARK  208  A    between atoms: _510  and  _512
REMARK  209  A    between atoms: _512  and  _513
REMARK  210  A    between atoms: _515  and  _517
REMARK  211  A    between atoms: _517  and  _518
REMARK  212  A    between atoms: _517  and  _520
REMARK  213  A    between atoms: _520  and  _521
REMARK                            x       y       z     vdW  Elec       q    Type
REMARK                         _______ _______ _______ _____ _____    ______ ____
ROOT
ATOM      1  O   HOH     1       4.927  18.874  15.751  0.00  0.00    +0.000 OA
ENDROOT
TORSDOF 0
REMARK  Name = ../refined-set-2016/4pow/4pow_pocket.pdb
REMARK  213 active torsions:
REMARK  status: ('A' for Active; 'I' for Inactive)
REMARK    1  A    between atoms: _1  and  _3
REMARK    2  A    between atoms: _3  and  _4
REMARK    3  A    between atoms: _3  and  _6
REMARK    4  A    between atoms: _6  and  _7
REMARK    5  A    between atoms: _10  and  _12
REMARK    6  A    between atoms: _12  and  _13
REMARK    7  A    between atoms: _12  and  _15
REMARK    8  A    between atoms: _15  and  _16
REMARK    9  A    between atoms: _16  and  _17
REMARK   10  A    between atoms: _20  and  _22
REMARK   11  A    between atoms: _22  and  _23
REMARK   12  A    between atoms: _25  and  _27
REMARK   13  A    between atoms: _27  and  _28
REMARK   14  A    between atoms: _27  and  _30
REMARK   15  A    between atoms: _30  and  _31
REMARK   16  A    between atoms: _33  and  _35
REMARK   17  A    between atoms: _35  and  _36
REMARK   18  A    between atoms: _35  and  _38
REMARK   19  A    between atoms: _38  and  _39
REMARK   20  A    between atoms: _44  and  _45
REMARK   21  A    between atoms: _47  and  _49
REMARK   22  A    between atoms: _49  and  _50
REMARK   23  A    between atoms: _54  and  _55
REMARK   24  A    between atoms: _60  and  _62
REMARK   25  A    between atoms: _62  and  _63
REMARK   26  A    between atoms: _62  and  _65
REMARK   27  A    between atoms: _65  and  _66
REMARK   28  A    between atoms: _71  and  _72
REMARK   29  A    between atoms: _74  and  _76
REMARK   30  A    between atoms: _76  and  _77
REMARK   31  A    between atoms: _76  and  _79
REMARK   32  A    between atoms: _79  and  _80
REMARK   33  A    between atoms: _85  and  _87
REMARK   34  A    between atoms: _87  and  _88
REMARK   35  A    between atoms: _87  and  _90
REMARK   36  A    between atoms: _90  and  _91
REMARK   37  A    between atoms: _94  and  _96
REMARK   38  A    between atoms: _96  and  _97
REMARK   39  A    between atoms: _96  and  _99
REMARK   40  A    between atoms: _99  and  _100
REMARK   41  A    between atoms: _100  and  _101
REMARK   42  A    between atoms: _106  and  _108
REMARK   43  A    between atoms: _108  and  _109
REMARK   44  A    between atoms: _112  and  _114
REMARK   45  A    between atoms: _114  and  _115
REMARK   46  A    between atoms: _114  and  _117
REMARK   47  A    between atoms: _117  and  _118
REMARK   48  A    between atoms: _128  and  _130
REMARK   49  A    between atoms: _130  and  _131
REMARK   50  A    between atoms: _130  and  _133
REMARK   51  A    between atoms: _133  and  _134
REMARK   52  A    between atoms: _137  and  _139
REMARK   53  A    between atoms: _139  and  _140
REMARK   54  A    between atoms: _139  and  _142
REMARK   55  A    between atoms: _142  and  _143
REMARK   56  A    between atoms: _146  and  _148
REMARK   57  A    between atoms: _148  and  _149
REMARK   58  A    between atoms: _148  and  _151
REMARK   59  A    between atoms: _151  and  _152
REMARK   60  A    between atoms: _152  and  _153
REMARK   61  A    between atoms: _155  and  _157
REMARK   62  A    between atoms: _157  and  _158
REMARK   63  A    between atoms: _161  and  _163
REMARK   64  A    between atoms: _163  and  _164
REMARK   65  A    between atoms: _167  and  _169
REMARK   66  A    between atoms: _169  and  _170
REMARK   67  A    between atoms: _169  and  _172
REMARK   68  A    between atoms: _172  and  _173
REMARK   69  A    between atoms: _173  and  _174
REMARK   70  A    between atoms: _176  and  _178
REMARK   71  A    between atoms: _178  and  _179
REMARK   72  A    between atoms: _181  and  _183
REMARK   73  A    between atoms: _183  and  _184
REMARK   74  A    between atoms: _183  and  _186
REMARK   75  A    between atoms: _186  and  _187
REMARK   76  A    between atoms: _190  and  _192
REMARK   77  A    between atoms: _192  and  _193
REMARK   78  A    between atoms: _192  and  _195
REMARK   79  A    between atoms: _195  and  _196
REMARK   80  A    between atoms: _196  and  _197
REMARK   81  A    between atoms: _202  and  _204
REMARK   82  A    between atoms: _204  and  _205
REMARK   83  A    between atoms: _204  and  _207
REMARK   84  A    between atoms: _207  and  _208
REMARK   85  A    between atoms: _208  and  _209
REMARK   86  A    between atoms: _209  and  _210
REMARK   87  A    between atoms: _219  and  _221
REMARK   88  A    between atoms: _221  and  _222
REMARK   89  A    between atoms: _221  and  _224
REMARK   90  A    between atoms: _224  and  _225
REMARK   91  A    between atoms: _231  and  _233
REMARK   92  A    between atoms: _233  and  _234
REMARK   93  A    between atoms: _233  and  _236
REMARK   94  A    between atoms: _236  and  _237
REMARK   95  A    between atoms: _240  and  _242
REMARK   96  A    between atoms: _242  and  _243
REMARK   97  A    between atoms: _242  and  _245
REMARK   98  A    between atoms: _245  and  _246
REMARK   99  A    between atoms: _249  and  _251
REMARK  100  A    between atoms: _251  and  _252
REMARK  101  A    between atoms: _251  and  _254
REMARK  102  A    between atoms: _254  and  _255
REMARK  103  A    between atoms: _259  and  _260
REMARK  104  A    between atoms: _265  and  _267
REMARK  105  A    between atoms: _267  and  _268
REMARK  106  A    between atoms: _267  and  _270
REMARK  107  A    between atoms: _270  and  _271
REMARK  108  A    between atoms: _271  and  _272
REMARK  109  A    between atoms: _274  and  _276
REMARK  110  A    between atoms: _276  and  _277
REMARK  111  A    between atoms: _276  and  _279
REMARK  112  A    between atoms: _279  and  _280
REMARK  113  A    between atoms: _283  and  _285
REMARK  114  A    between atoms: _285  and  _286
REMARK  115  A    between atoms: _285  and  _288
REMARK  116  A    between atoms: _288  and  _289
REMARK  117  A    between atoms: _289  and  _290
REMARK  118  A    between atoms: _295  and  _297
REMARK  119  A    between atoms: _297  and  _298
REMARK  120  A    between atoms: _301  and  _303
REMARK  121  A    between atoms: _303  and  _304
REMARK  122  A    between atoms: _306  and  _308
REMARK  123  A    between atoms: _308  and  _309
REMARK  124  A    between atoms: _308  and  _311
REMARK  125  A    between atoms: _311  and  _312
REMARK  126  A    between atoms: _315  and  _317
REMARK  127  A    between atoms: _317  and  _318
REMARK  128  A    between atoms: _317  and  _320
REMARK  129  A    between atoms: _320  and  _321
REMARK  130  A    between atoms: _323  and  _325
REMARK  131  A    between atoms: _325  and  _326
REMARK  132  A    between atoms: _325  and  _328
REMARK  133  A    between atoms: _328  and  _329
REMARK  134  A    between atoms: _334  and  _336
REMARK  135  A    between atoms: _336  and  _337
REMARK  136  A    between atoms: _336  and  _339
REMARK  137  A    between atoms: _339  and  _340
REMARK  138  A    between atoms: _340  and  _341
REMARK  139  A    between atoms: _344  and  _346
REMARK  140  A    between atoms: _346  and  _347
REMARK  141  A    between atoms: _350  and  _352
REMARK  142  A    between atoms: _352  and  _353
REMARK  143  A    between atoms: _352  and  _355
REMARK  144  A    between atoms: _355  and  _356
REMARK  145  A    between atoms: _362  and  _364
REMARK  146  A    between atoms: _364  and  _365
REMARK  147  A    between atoms: _364  and  _367
REMARK  148  A    between atoms: _367  and  _368
REMARK  149  A    between atoms: _371  and  _373
REMARK  150  A    between atoms: _373  and  _374
REMARK  151  A    between atoms: _373  and  _376
REMARK  152  A    between atoms: _376  and  _377
REMARK  153  A    between atoms: _380  and  _382
REMARK  154  A    between atoms: _382  and  _383
REMARK  155  A    between atoms: _382  and  _385
REMARK  156  A    between atoms: _385  and  _386
REMARK  157  A    between atoms: _389  and  _391
REMARK  158  A    between atoms: _391  and  _392
REMARK  159  A    between atoms: _391  and  _394
REMARK  160  A    between atoms: _394  and  _395
REMARK  161  A    between atoms: _398  and  _400
REMARK  162  A    between atoms: _400  and  _401
REMARK  163  A    between atoms: _400  and  _403
REMARK  164  A    between atoms: _403  and  _404
REMARK  165  A    between atoms: _407  and  _409
REMARK  166  A    between atoms: _409  and  _410
REMARK  167  A    between atoms: _413  and  _415
REMARK  168  A    between atoms: _415  and  _416
REMARK  169  A    between atoms: _415  and  _418
REMARK  170  A    between atoms: _418  and  _419
REMARK  171  A    between atoms: _421  and  _423
REMARK  172  A    between atoms: _423  and  _424
REMARK  173  A    between atoms: _423  and  _426
REMARK  174  A    between atoms: _429  and  _431
REMARK  175  A    between atoms: _431  and  _432
REMARK  176  A    between atoms: _431  and  _434
REMARK  177  A    between atoms: _434  and  _435
REMARK  178  A    between atoms: _437  and  _439
REMARK  179  A    between atoms: _439  and  _440
REMARK  180  A    between atoms: _439  and  _442
REMARK  181  A    between atoms: _442  and  _443
REMARK  182  A    between atoms: _449  and  _451
REMARK  183  A    between atoms: _451  and  _452
REMARK  184  A    between atoms: _451  and  _454
REMARK  185  A    between atoms: _454  and  _455
REMARK  186  A    between atoms: _458  and  _460
REMARK  187  A    between atoms: _460  and  _461
REMARK  188  A    between atoms: _460  and  _463
REMARK  189  A    between atoms: _463  and  _464
REMARK  190  A    between atoms: _467  and  _469
REMARK  191  A    between atoms: _469  and  _470
REMARK  192  A    between atoms: _469  and  _472
REMARK  193  A    between atoms: _472  and  _473
REMARK  194  A    between atoms: _479  and  _481
REMARK  195  A    between atoms: _481  and  _482
REMARK  196  A    between atoms: _484  and  _486
REMARK  197  A    between atoms: _486  and  _487
REMARK  198  A    between atoms: _486  and  _489
REMARK  199  A    between atoms: _489  and  _490
REMARK  200  A    between atoms: _490  and  _491
REMARK  201  A    between atoms: _491  and  _492
REMARK  202  A    between atoms: _492  and  _493
REMARK  203  A    between atoms: _497  and  _499
REMARK  204  A    between atoms: _499  and  _500
REMARK  205  A    between atoms: _502  and  _504
REMARK  206  A    between atoms: _504  and  _505
REMARK  207  A    between atoms: _504  and  _507
REMARK  208  A    between atoms: _510  and  _512
REMARK  209  A    between atoms: _512  and  _513
REMARK  210  A    between atoms: _515  and  _517
REMARK  211  A    between atoms: _517  and  _518
REMARK  212  A    between atoms: _517  and  _520
REMARK  213  A    between atoms: _520  and  _521
REMARK                            x       y       z     vdW  Elec       q    Type
REMARK                         _______ _______ _______ _____ _____    ______ ____
ROOT
ATOM      1  O   HOH     1       0.634  11.656   3.404  0.00  0.00    +0.000 OA
ENDROOT
TORSDOF 0
REMARK  Name = ../refined-set-2016/4pow/4pow_pocket.pdb
REMARK  213 active torsions:
REMARK  status: ('A' for Active; 'I' for Inactive)
REMARK    1  A    between atoms: _1  and  _3
REMARK    2  A    between atoms: _3  and  _4
REMARK    3  A    between atoms: _3  and  _6
REMARK    4  A    between atoms: _6  and  _7
REMARK    5  A    between atoms: _10  and  _12
REMARK    6  A    between atoms: _12  and  _13
REMARK    7  A    between atoms: _12  and  _15
REMARK    8  A    between atoms: _15  and  _16
REMARK    9  A    between atoms: _16  and  _17
REMARK   10  A    between atoms: _20  and  _22
REMARK   11  A    between atoms: _22  and  _23
REMARK   12  A    between atoms: _25  and  _27
REMARK   13  A    between atoms: _27  and  _28
REMARK   14  A    between atoms: _27  and  _30
REMARK   15  A    between atoms: _30  and  _31
REMARK   16  A    between atoms: _33  and  _35
REMARK   17  A    between atoms: _35  and  _36
REMARK   18  A    between atoms: _35  and  _38
REMARK   19  A    between atoms: _38  and  _39
REMARK   20  A    between atoms: _44  and  _45
REMARK   21  A    between atoms: _47  and  _49
REMARK   22  A    between atoms: _49  and  _50
REMARK   23  A    between atoms: _54  and  _55
REMARK   24  A    between atoms: _60  and  _62
REMARK   25  A    between atoms: _62  and  _63
REMARK   26  A    between atoms: _62  and  _65
REMARK   27  A    between atoms: _65  and  _66
REMARK   28  A    between atoms: _71  and  _72
REMARK   29  A    between atoms: _74  and  _76
REMARK   30  A    between atoms: _76  and  _77
REMARK   31  A    between atoms: _76  and  _79
REMARK   32  A    between atoms: _79  and  _80
REMARK   33  A    between atoms: _85  and  _87
REMARK   34  A    between atoms: _87  and  _88
REMARK   35  A    between atoms: _87  and  _90
REMARK   36  A    between atoms: _90  and  _91
REMARK   37  A    between atoms: _94  and  _96
REMARK   38  A    between atoms: _96  and  _97
REMARK   39  A    between atoms: _96  and  _99
REMARK   40  A    between atoms: _99  and  _100
REMARK   41  A    between atoms: _100  and  _101
REMARK   42  A    between atoms: _106  and  _108
REMARK   43  A    between atoms: _108  and  _109
REMARK   44  A    between atoms: _112  and  _114
REMARK   45  A    between atoms: _114  and  _115
REMARK   46  A    between atoms: _114  and  _117
REMARK   47  A    between atoms: _117  and  _118
REMARK   48  A    between atoms: _128  and  _130
REMARK   49  A    between atoms: _130  and  _131
REMARK   50  A    between atoms: _130  and  _133
REMARK   51  A    between atoms: _133  and  _134
REMARK   52  A    between atoms: _137  and  _139
REMARK   53  A    between atoms: _139  and  _140
REMARK   54  A    between atoms: _139  and  _142
REMARK   55  A    between atoms: _142  and  _143
REMARK   56  A    between atoms: _146  and  _148
REMARK   57  A    between atoms: _148  and  _149
REMARK   58  A    between atoms: _148  and  _151
REMARK   59  A    between atoms: _151  and  _152
REMARK   60  A    between atoms: _152  and  _153
REMARK   61  A    between atoms: _155  and  _157
REMARK   62  A    between atoms: _157  and  _158
REMARK   63  A    between atoms: _161  and  _163
REMARK   64  A    between atoms: _163  and  _164
REMARK   65  A    between atoms: _167  and  _169
REMARK   66  A    between atoms: _169  and  _170
REMARK   67  A    between atoms: _169  and  _172
REMARK   68  A    between atoms: _172  and  _173
REMARK   69  A    between atoms: _173  and  _174
REMARK   70  A    between atoms: _176  and  _178
REMARK   71  A    between atoms: _178  and  _179
REMARK   72  A    between atoms: _181  and  _183
REMARK   73  A    between atoms: _183  and  _184
REMARK   74  A    between atoms: _183  and  _186
REMARK   75  A    between atoms: _186  and  _187
REMARK   76  A    between atoms: _190  and  _192
REMARK   77  A    between atoms: _192  and  _193
REMARK   78  A    between atoms: _192  and  _195
REMARK   79  A    between atoms: _195  and  _196
REMARK   80  A    between atoms: _196  and  _197
REMARK   81  A    between atoms: _202  and  _204
REMARK   82  A    between atoms: _204  and  _205
REMARK   83  A    between atoms: _204  and  _207
REMARK   84  A    between atoms: _207  and  _208
REMARK   85  A    between atoms: _208  and  _209
REMARK   86  A    between atoms: _209  and  _210
REMARK   87  A    between atoms: _219  and  _221
REMARK   88  A    between atoms: _221  and  _222
REMARK   89  A    between atoms: _221  and  _224
REMARK   90  A    between atoms: _224  and  _225
REMARK   91  A    between atoms: _231  and  _233
REMARK   92  A    between atoms: _233  and  _234
REMARK   93  A    between atoms: _233  and  _236
REMARK   94  A    between atoms: _236  and  _237
REMARK   95  A    between atoms: _240  and  _242
REMARK   96  A    between atoms: _242  and  _243
REMARK   97  A    between atoms: _242  and  _245
REMARK   98  A    between atoms: _245  and  _246
REMARK   99  A    between atoms: _249  and  _251
REMARK  100  A    between atoms: _251  and  _252
REMARK  101  A    between atoms: _251  and  _254
REMARK  102  A    between atoms: _254  and  _255
REMARK  103  A    between atoms: _259  and  _260
REMARK  104  A    between atoms: _265  and  _267
REMARK  105  A    between atoms: _267  and  _268
REMARK  106  A    between atoms: _267  and  _270
REMARK  107  A    between atoms: _270  and  _271
REMARK  108  A    between atoms: _271  and  _272
REMARK  109  A    between atoms: _274  and  _276
REMARK  110  A    between atoms: _276  and  _277
REMARK  111  A    between atoms: _276  and  _279
REMARK  112  A    between atoms: _279  and  _280
REMARK  113  A    between atoms: _283  and  _285
REMARK  114  A    between atoms: _285  and  _286
REMARK  115  A    between atoms: _285  and  _288
REMARK  116  A    between atoms: _288  and  _289
REMARK  117  A    between atoms: _289  and  _290
REMARK  118  A    between atoms: _295  and  _297
REMARK  119  A    between atoms: _297  and  _298
REMARK  120  A    between atoms: _301  and  _303
REMARK  121  A    between atoms: _303  and  _304
REMARK  122  A    between atoms: _306  and  _308
REMARK  123  A    between atoms: _308  and  _309
REMARK  124  A    between atoms: _308  and  _311
REMARK  125  A    between atoms: _311  and  _312
REMARK  126  A    between atoms: _315  and  _317
REMARK  127  A    between atoms: _317  and  _318
REMARK  128  A    between atoms: _317  and  _320
REMARK  129  A    between atoms: _320  and  _321
REMARK  130  A    between atoms: _323  and  _325
REMARK  131  A    between atoms: _325  and  _326
REMARK  132  A    between atoms: _325  and  _328
REMARK  133  A    between atoms: _328  and  _329
REMARK  134  A    between atoms: _334  and  _336
REMARK  135  A    between atoms: _336  and  _337
REMARK  136  A    between atoms: _336  and  _339
REMARK  137  A    between atoms: _339  and  _340
REMARK  138  A    between atoms: _340  and  _341
REMARK  139  A    between atoms: _344  and  _346
REMARK  140  A    between atoms: _346  and  _347
REMARK  141  A    between atoms: _350  and  _352
REMARK  142  A    between atoms: _352  and  _353
REMARK  143  A    between atoms: _352  and  _355
REMARK  144  A    between atoms: _355  and  _356
REMARK  145  A    between atoms: _362  and  _364
REMARK  146  A    between atoms: _364  and  _365
REMARK  147  A    between atoms: _364  and  _367
REMARK  148  A    between atoms: _367  and  _368
REMARK  149  A    between atoms: _371  and  _373
REMARK  150  A    between atoms: _373  and  _374
REMARK  151  A    between atoms: _373  and  _376
REMARK  152  A    between atoms: _376  and  _377
REMARK  153  A    between atoms: _380  and  _382
REMARK  154  A    between atoms: _382  and  _383
REMARK  155  A    between atoms: _382  and  _385
REMARK  156  A    between atoms: _385  and  _386
REMARK  157  A    between atoms: _389  and  _391
REMARK  158  A    between atoms: _391  and  _392
REMARK  159  A    between atoms: _391  and  _394
REMARK  160  A    between atoms: _394  and  _395
REMARK  161  A    between atoms: _398  and  _400
REMARK  162  A    between atoms: _400  and  _401
REMARK  163  A    between atoms: _400  and  _403
REMARK  164  A    between atoms: _403  and  _404
REMARK  165  A    between atoms: _407  and  _409
REMARK  166  A    between atoms: _409  and  _410
REMARK  167  A    between atoms: _413  and  _415
REMARK  168  A    between atoms: _415  and  _416
REMARK  169  A    between atoms: _415  and  _418
REMARK  170  A    between atoms: _418  and  _419
REMARK  171  A    between atoms: _421  and  _423
REMARK  172  A    between atoms: _423  and  _424
REMARK  173  A    between atoms: _423  and  _426
REMARK  174  A    between atoms: _429  and  _431
REMARK  175  A    between atoms: _431  and  _432
REMARK  176  A    between atoms: _431  and  _434
REMARK  177  A    between atoms: _434  and  _435
REMARK  178  A    between atoms: _437  and  _439
REMARK  179  A    between atoms: _439  and  _440
REMARK  180  A    between atoms: _439  and  _442
REMARK  181  A    between atoms: _442  and  _443
REMARK  182  A    between atoms: _449  and  _451
REMARK  183  A    between atoms: _451  and  _452
REMARK  184  A    between atoms: _451  and  _454
REMARK  185  A    between atoms: _454  and  _455
REMARK  186  A    between atoms: _458  and  _460
REMARK  187  A    between atoms: _460  and  _461
REMARK  188  A    between atoms: _460  and  _463
REMARK  189  A    between atoms: _463  and  _464
REMARK  190  A    between atoms: _467  and  _469
REMARK  191  A    between atoms: _469  and  _470
REMARK  192  A    between atoms: _469  and  _472
REMARK  193  A    between atoms: _472  and  _473
REMARK  194  A    between atoms: _479  and  _481
REMARK  195  A    between atoms: _481  and  _482
REMARK  196  A    between atoms: _484  and  _486
REMARK  197  A    between atoms: _486  and  _487
REMARK  198  A    between atoms: _486  and  _489
REMARK  199  A    between atoms: _489  and  _490
REMARK  200  A    between atoms: _490  and  _491
REMARK  201  A    between atoms: _491  and  _492
REMARK  202  A    between atoms: _492  and  _493
REMARK  203  A    between atoms: _497  and  _499
REMARK  204  A    between atoms: _499  and  _500
REMARK  205  A    between atoms: _502  and  _504
REMARK  206  A    between atoms: _504  and  _505
REMARK  207  A    between atoms: _504  and  _507
REMARK  208  A    between atoms: _510  and  _512
REMARK  209  A    between atoms: _512  and  _513
REMARK  210  A    between atoms: _515  and  _517
REMARK  211  A    between atoms: _517  and  _518
REMARK  212  A    between atoms: _517  and  _520
REMARK  213  A    between atoms: _520  and  _521
REMARK                            x       y       z     vdW  Elec       q    Type
REMARK                         _______ _______ _______ _____ _____    ______ ____
ROOT
ATOM      1  O   HOH     1       3.626  17.588  -4.973  0.00  0.00    +0.000 OA
ENDROOT
TORSDOF 0
